data_zeolite

_audit_creation_method RASPA-1.0
_audit_creation_date 2021-1-30
_audit_author_name ''

_cell_length_a    38.613
_cell_length_b    38.613
_cell_length_c    30.577
_cell_angle_alpha 90
_cell_angle_beta  90
_cell_angle_gamma 120
_cell_volume      39481.4

_symmetry_cell_setting          trigonal
_symmetry_space_group_name_Hall 'P 1'
_symmetry_space_group_name_H-M  'P 1'
_symmetry_Int_Tables_number     1

_symmetry_equiv_pos_as_xyz 'x,y,z'

loop_
_atom_site_label
_atom_site_type_symbol
_atom_site_fract_x
_atom_site_fract_y
_atom_site_fract_z
_atom_site_charge
O        O      0.222233333333     0.228433333333     0.333300000000     0          
O        O      0.290400000000     0.247433333333     0.295500000000     0          
O        O      0.228533333333     0.234566666667     0.247800000000     0          
O        O      0.264900000000     0.299133333333     0.296700000000     0          
O        O      0.202633333333     0.313733333333     0.166700000000     0          
O        O      0.154733333333     0.309433333333     0.230200000000     0          
O        O      0.175700000000     0.254500000000     0.223000000000     0          
T        Si     0.251533333333     0.252466666667     0.293300000000     0          
T        Si     0.190366666667     0.301300000000     0.216900000000     0          
O        O      0.104900000000     0.327133333333     0.333300000000     0          
O        O      0.085900000000     0.042966666667     0.295500000000     0          
O        O      0.098766666667     0.327300000000     0.247800000000     0          
O        O      0.034200000000     0.299100000000     0.296700000000     0          
O        O      0.019600000000     0.222233333333     0.166700000000     0          
O        O      0.023900000000     0.178633333333     0.230200000000     0          
O        O      0.078833333333     0.254533333333     0.223000000000     0          
T        Si     0.080866666667     0.332400000000     0.293300000000     0          
T        Si     0.032033333333     0.222400000000     0.216900000000     0          
O        O      0.006200000000     0.111100000000     0.333300000000     0          
O        O      0.290366666667     0.042933333333     0.295500000000     0          
O        O      0.006033333333     0.104800000000     0.247800000000     0          
O        O      0.034233333333     0.068433333333     0.296700000000     0          
O        O      0.111100000000     0.130700000000     0.166700000000     0          
O        O      0.154700000000     0.178600000000     0.230200000000     0          
O        O      0.078800000000     0.157633333333     0.223000000000     0          
T        Si     0.000933333333     0.081800000000     0.293300000000     0          
T        Si     0.110933333333     0.142966666667     0.216900000000     0          
O        O      0.228433333333     0.222233333333     0.666700000000     0          
O        O      0.247433333333     0.290400000000     0.704500000000     0          
O        O      0.234566666667     0.228533333333     0.752200000000     0          
O        O      0.299133333333     0.264900000000     0.703300000000     0          
O        O      0.313733333333     0.202633333333     0.833300000000     0          
O        O      0.309433333333     0.154733333333     0.769800000000     0          
O        O      0.254500000000     0.175700000000     0.777000000000     0          
T        Si     0.252466666667     0.251533333333     0.706700000000     0          
T        Si     0.301300000000     0.190366666667     0.783100000000     0          
O        O      0.111100000000     0.006200000000     0.666700000000     0          
O        O      0.042933333333     0.290366666667     0.704500000000     0          
O        O      0.104800000000     0.006033333333     0.752200000000     0          
O        O      0.068433333333     0.034233333333     0.703300000000     0          
O        O      0.130700000000     0.111100000000     0.833300000000     0          
O        O      0.178600000000     0.154700000000     0.769800000000     0          
O        O      0.157633333333     0.078800000000     0.777000000000     0          
T        Si     0.081800000000     0.000933333333     0.706700000000     0          
T        Si     0.142966666667     0.110933333333     0.783100000000     0          
O        O      0.327133333333     0.104900000000     0.666700000000     0          
O        O      0.042966666667     0.085900000000     0.704500000000     0          
O        O      0.327300000000     0.098766666667     0.752200000000     0          
O        O      0.299100000000     0.034200000000     0.703300000000     0          
O        O      0.222233333333     0.019600000000     0.833300000000     0          
O        O      0.178633333333     0.023900000000     0.769800000000     0          
O        O      0.254533333333     0.078833333333     0.777000000000     0          
T        Si     0.332400000000     0.080866666667     0.706700000000     0          
T        Si     0.222400000000     0.032033333333     0.783100000000     0          
O        O      0.111100000000     0.104900000000     0.666700000000     0          
O        O      0.104800000000     0.098766666667     0.752200000000     0          
O        O      0.130700000000     0.019600000000     0.833300000000     0          
T        Si     0.081800000000     0.080866666667     0.706700000000     0          
T        Si     0.142966666667     0.032033333333     0.783100000000     0          
O        O      0.228433333333     0.006200000000     0.666700000000     0          
O        O      0.234566666667     0.006033333333     0.752200000000     0          
O        O      0.313733333333     0.111100000000     0.833300000000     0          
T        Si     0.252466666667     0.000933333333     0.706700000000     0          
T        Si     0.301300000000     0.110933333333     0.783100000000     0          
O        O      0.327133333333     0.222233333333     0.666700000000     0          
O        O      0.327300000000     0.228533333333     0.752200000000     0          
O        O      0.222233333333     0.202633333333     0.833300000000     0          
T        Si     0.332400000000     0.251533333333     0.706700000000     0          
T        Si     0.222400000000     0.190366666667     0.783100000000     0          
O        O      0.104900000000     0.111100000000     0.333300000000     0          
O        O      0.098766666667     0.104800000000     0.247800000000     0          
O        O      0.019600000000     0.130700000000     0.166700000000     0          
T        Si     0.080866666667     0.081800000000     0.293300000000     0          
T        Si     0.032033333333     0.142966666667     0.216900000000     0          
O        O      0.222233333333     0.327133333333     0.333300000000     0          
O        O      0.228533333333     0.327300000000     0.247800000000     0          
O        O      0.202633333333     0.222233333333     0.166700000000     0          
T        Si     0.251533333333     0.332400000000     0.293300000000     0          
T        Si     0.190366666667     0.222400000000     0.216900000000     0          
O        O      0.006200000000     0.228433333333     0.333300000000     0          
O        O      0.006033333333     0.234566666667     0.247800000000     0          
O        O      0.111100000000     0.313733333333     0.166700000000     0          
T        Si     0.000933333333     0.252466666667     0.293300000000     0          
T        Si     0.110933333333     0.301300000000     0.216900000000     0          
O        O      0.179288888889     0.025211111111     0.628833333333     0          
O        O      0.117422222222     0.012344444444     0.581133333333     0          
O        O      0.153788888889     0.076911111111     0.630033333333     0          
O        O      0.091522222222     0.091511111111     0.500033333333     0          
O        O      0.043622222222     0.087211111111     0.563533333333     0          
O        O      0.064588888889     0.032277777778     0.556333333333     0          
T        Si     0.140422222222     0.030244444444     0.626633333333     0          
T        Si     0.079255555556     0.079077777778     0.550233333333     0          
O        O      0.308122222222     0.154077777778     0.628833333333     0          
O        O      0.320988888889     0.105077777778     0.581133333333     0          
O        O      0.256422222222     0.076877777778     0.630033333333     0          
O        O      0.241822222222     0.000011111111     0.500033333333     0          
O        O      0.246122222222     0.289744444444     0.563533333333     0          
O        O      0.301055555556     0.032311111111     0.556333333333     0          
T        Si     0.303088888889     0.110177777778     0.626633333333     0          
T        Si     0.254255555556     0.000177777778     0.550233333333     0          
O        O      0.179255555556     0.154044444444     0.628833333333     0          
O        O      0.228255555556     0.215911111111     0.581133333333     0          
O        O      0.256455555556     0.179544444444     0.630033333333     0          
O        O      0.333322222222     0.241811111111     0.500033333333     0          
O        O      0.043588888889     0.289711111111     0.563533333333     0          
O        O      0.301022222222     0.268744444444     0.556333333333     0          
T        Si     0.223155555556     0.192911111111     0.626633333333     0          
T        Si     0.333155555556     0.254077777778     0.550233333333     0          
O        O      0.117322222222     0.000011111111     0.000033333333     0          
O        O      0.136322222222     0.068177777778     0.037833333333     0          
O        O      0.123455555556     0.006311111111     0.085533333333     0          
O        O      0.188022222222     0.042677777778     0.036633333333     0          
O        O      0.198322222222     0.265844444444     0.103133333333     0          
O        O      0.143388888889     0.286811111111     0.110333333333     0          
T        Si     0.141355555556     0.029311111111     0.040033333333     0          
T        Si     0.190188888889     0.301477777778     0.116433333333     0          
O        O      0.333322222222     0.117311111111     0.000033333333     0          
O        O      0.265155555556     0.068144444444     0.037833333333     0          
O        O      0.327022222222     0.117144444444     0.085533333333     0          
O        O      0.290655555556     0.145344444444     0.036633333333     0          
O        O      0.067488888889     0.265811111111     0.103133333333     0          
O        O      0.046522222222     0.189911111111     0.110333333333     0          
T        Si     0.304022222222     0.112044444444     0.040033333333     0          
T        Si     0.031855555556     0.222044444444     0.116433333333     0          
O        O      0.216022222222     0.216011111111     0.000033333333     0          
O        O      0.265188888889     0.197011111111     0.037833333333     0          
O        O      0.216188888889     0.209877777778     0.085533333333     0          
O        O      0.187988888889     0.145311111111     0.036633333333     0          
O        O      0.067522222222     0.135011111111     0.103133333333     0          
O        O      0.143422222222     0.189944444444     0.110333333333     0          
T        Si     0.221288888889     0.191977777778     0.040033333333     0          
T        Si     0.111288888889     0.143144444444     0.116433333333     0          
O        O      0.333322222222     0.216011111111     0.000033333333     0          
O        O      0.327022222222     0.209877777778     0.085533333333     0          
T        Si     0.304022222222     0.191977777778     0.040033333333     0          
T        Si     0.031855555556     0.143144444444     0.116433333333     0          
O        O      0.117322222222     0.117311111111     0.000033333333     0          
O        O      0.123455555556     0.117144444444     0.085533333333     0          
T        Si     0.141355555556     0.112044444444     0.040033333333     0          
T        Si     0.190188888889     0.222044444444     0.116433333333     0          
O        O      0.216022222222     0.000011111111     0.000033333333     0          
O        O      0.216188888889     0.006311111111     0.085533333333     0          
T        Si     0.221288888889     0.029311111111     0.040033333333     0          
T        Si     0.111288888889     0.301477777778     0.116433333333     0          
O        O      0.320988888889     0.215911111111     0.581133333333     0          
O        O      0.241822222222     0.241811111111     0.500033333333     0          
T        Si     0.303088888889     0.192911111111     0.626633333333     0          
T        Si     0.254255555556     0.254077777778     0.550233333333     0          
O        O      0.117422222222     0.105077777778     0.581133333333     0          
O        O      0.091522222222     0.000011111111     0.500033333333     0          
T        Si     0.140422222222     0.110177777778     0.626633333333     0          
T        Si     0.079255555556     0.000177777778     0.550233333333     0          
O        O      0.228255555556     0.012344444444     0.581133333333     0          
O        O      0.333322222222     0.091511111111     0.500033333333     0          
T        Si     0.223155555556     0.030244444444     0.626633333333     0          
T        Si     0.333155555556     0.079077777778     0.550233333333     0          
O        O      0.000011111111     0.117322222222     0.999966666667     0          
O        O      0.068177777778     0.136322222222     0.962166666667     0          
O        O      0.006311111111     0.123455555556     0.914466666667     0          
O        O      0.042677777778     0.188022222222     0.963366666667     0          
O        O      0.265844444444     0.198322222222     0.896866666667     0          
O        O      0.286811111111     0.143388888889     0.889666666667     0          
T        Si     0.029311111111     0.141355555556     0.959966666667     0          
T        Si     0.301477777778     0.190188888889     0.883566666667     0          
O        O      0.197011111111     0.265188888889     0.962166666667     0          
O        O      0.209877777778     0.216188888889     0.914466666667     0          
O        O      0.145311111111     0.187988888889     0.963366666667     0          
O        O      0.135011111111     0.067522222222     0.896866666667     0          
O        O      0.189944444444     0.143422222222     0.889666666667     0          
T        Si     0.191977777778     0.221288888889     0.959966666667     0          
T        Si     0.143144444444     0.111288888889     0.883566666667     0          
O        O      0.117311111111     0.333322222222     0.999966666667     0          
O        O      0.068144444444     0.265155555556     0.962166666667     0          
O        O      0.117144444444     0.327022222222     0.914466666667     0          
O        O      0.145344444444     0.290655555556     0.963366666667     0          
O        O      0.265811111111     0.067488888889     0.896866666667     0          
O        O      0.189911111111     0.046522222222     0.889666666667     0          
T        Si     0.112044444444     0.304022222222     0.959966666667     0          
T        Si     0.222044444444     0.031855555556     0.883566666667     0          
O        O      0.025211111111     0.179288888889     0.371166666667     0          
O        O      0.012344444444     0.117422222222     0.418866666667     0          
O        O      0.076911111111     0.153788888889     0.369966666667     0          
O        O      0.087211111111     0.043622222222     0.436466666667     0          
O        O      0.032277777778     0.064588888889     0.443666666667     0          
T        Si     0.030244444444     0.140422222222     0.373366666667     0          
T        Si     0.079077777778     0.079255555556     0.449766666667     0          
O        O      0.154044444444     0.179255555556     0.371166666667     0          
O        O      0.215911111111     0.228255555556     0.418866666667     0          
O        O      0.179544444444     0.256455555556     0.369966666667     0          
O        O      0.241811111111     0.333322222222     0.499966666667     0          
O        O      0.289711111111     0.043588888889     0.436466666667     0          
O        O      0.268744444444     0.301022222222     0.443666666667     0          
T        Si     0.192911111111     0.223155555556     0.373366666667     0          
T        Si     0.254077777778     0.333155555556     0.449766666667     0          
O        O      0.154077777778     0.308122222222     0.371166666667     0          
O        O      0.105077777778     0.320988888889     0.418866666667     0          
O        O      0.076877777778     0.256422222222     0.369966666667     0          
O        O      0.000011111111     0.241822222222     0.499966666667     0          
O        O      0.289744444444     0.246122222222     0.436466666667     0          
O        O      0.032311111111     0.301055555556     0.443666666667     0          
T        Si     0.110177777778     0.303088888889     0.373366666667     0          
T        Si     0.000177777778     0.254255555556     0.449766666667     0          
O        O      0.215911111111     0.320988888889     0.418866666667     0          
T        Si     0.192911111111     0.303088888889     0.373366666667     0          
T        Si     0.254077777778     0.254255555556     0.449766666667     0          
O        O      0.012344444444     0.228255555556     0.418866666667     0          
O        O      0.091511111111     0.333322222222     0.499966666667     0          
T        Si     0.030244444444     0.223155555556     0.373366666667     0          
T        Si     0.079077777778     0.333155555556     0.449766666667     0          
O        O      0.105077777778     0.117422222222     0.418866666667     0          
O        O      0.000011111111     0.091522222222     0.499966666667     0          
T        Si     0.110177777778     0.140422222222     0.373366666667     0          
T        Si     0.000177777778     0.079255555556     0.449766666667     0          
O        O      0.216011111111     0.333322222222     0.999966666667     0          
O        O      0.209877777778     0.327022222222     0.914466666667     0          
T        Si     0.191977777778     0.304022222222     0.959966666667     0          
T        Si     0.143144444444     0.031855555556     0.883566666667     0          
O        O      0.000011111111     0.216022222222     0.999966666667     0          
O        O      0.006311111111     0.216188888889     0.914466666667     0          
T        Si     0.029311111111     0.221288888889     0.959966666667     0          
T        Si     0.301477777778     0.111288888889     0.883566666667     0          
O        O      0.117144444444     0.123455555556     0.914466666667     0          
T        Si     0.112044444444     0.141355555556     0.959966666667     0          
T        Si     0.222044444444     0.190188888889     0.883566666667     0          
O        O      0.222233333333     0.561766666667     0.333300000000     0          
O        O      0.290400000000     0.580766666667     0.295500000000     0          
O        O      0.228533333333     0.567900000000     0.247800000000     0          
O        O      0.264900000000     0.632466666667     0.296700000000     0          
O        O      0.202633333333     0.647066666667     0.166700000000     0          
O        O      0.154733333333     0.642766666667     0.230200000000     0          
O        O      0.175700000000     0.587833333333     0.223000000000     0          
T        Si     0.251533333333     0.585800000000     0.293300000000     0          
T        Si     0.190366666667     0.634633333333     0.216900000000     0          
O        O      0.104900000000     0.660466666667     0.333300000000     0          
O        O      0.085900000000     0.376300000000     0.295500000000     0          
O        O      0.098766666667     0.660633333333     0.247800000000     0          
O        O      0.034200000000     0.632433333333     0.296700000000     0          
O        O      0.019600000000     0.555566666667     0.166700000000     0          
O        O      0.023900000000     0.511966666667     0.230200000000     0          
O        O      0.078833333333     0.587866666667     0.223000000000     0          
T        Si     0.080866666667     0.665733333333     0.293300000000     0          
T        Si     0.032033333333     0.555733333333     0.216900000000     0          
O        O      0.006200000000     0.444433333333     0.333300000000     0          
O        O      0.290366666667     0.376266666667     0.295500000000     0          
O        O      0.006033333333     0.438133333333     0.247800000000     0          
O        O      0.034233333333     0.401766666667     0.296700000000     0          
O        O      0.111100000000     0.464033333333     0.166700000000     0          
O        O      0.154700000000     0.511933333333     0.230200000000     0          
O        O      0.078800000000     0.490966666667     0.223000000000     0          
T        Si     0.000933333333     0.415133333333     0.293300000000     0          
T        Si     0.110933333333     0.476300000000     0.216900000000     0          
O        O      0.228433333333     0.555566666667     0.666700000000     0          
O        O      0.247433333333     0.623733333333     0.704500000000     0          
O        O      0.234566666667     0.561866666667     0.752200000000     0          
O        O      0.299133333333     0.598233333333     0.703300000000     0          
O        O      0.313733333333     0.535966666667     0.833300000000     0          
O        O      0.309433333333     0.488066666667     0.769800000000     0          
O        O      0.254500000000     0.509033333333     0.777000000000     0          
T        Si     0.252466666667     0.584866666667     0.706700000000     0          
T        Si     0.301300000000     0.523700000000     0.783100000000     0          
O        O      0.111100000000     0.339533333333     0.666700000000     0          
O        O      0.042933333333     0.623700000000     0.704500000000     0          
O        O      0.104800000000     0.339366666667     0.752200000000     0          
O        O      0.068433333333     0.367566666667     0.703300000000     0          
O        O      0.130700000000     0.444433333333     0.833300000000     0          
O        O      0.178600000000     0.488033333333     0.769800000000     0          
O        O      0.157633333333     0.412133333333     0.777000000000     0          
T        Si     0.081800000000     0.334266666667     0.706700000000     0          
T        Si     0.142966666667     0.444266666667     0.783100000000     0          
O        O      0.327133333333     0.438233333333     0.666700000000     0          
O        O      0.042966666667     0.419233333333     0.704500000000     0          
O        O      0.327300000000     0.432100000000     0.752200000000     0          
O        O      0.299100000000     0.367533333333     0.703300000000     0          
O        O      0.222233333333     0.352933333333     0.833300000000     0          
O        O      0.178633333333     0.357233333333     0.769800000000     0          
O        O      0.254533333333     0.412166666667     0.777000000000     0          
T        Si     0.332400000000     0.414200000000     0.706700000000     0          
T        Si     0.222400000000     0.365366666667     0.783100000000     0          
O        O      0.111100000000     0.438233333333     0.666700000000     0          
O        O      0.104800000000     0.432100000000     0.752200000000     0          
O        O      0.130700000000     0.352933333333     0.833300000000     0          
T        Si     0.081800000000     0.414200000000     0.706700000000     0          
T        Si     0.142966666667     0.365366666667     0.783100000000     0          
O        O      0.228433333333     0.339533333333     0.666700000000     0          
O        O      0.234566666667     0.339366666667     0.752200000000     0          
O        O      0.313733333333     0.444433333333     0.833300000000     0          
T        Si     0.252466666667     0.334266666667     0.706700000000     0          
T        Si     0.301300000000     0.444266666667     0.783100000000     0          
O        O      0.327133333333     0.555566666667     0.666700000000     0          
O        O      0.327300000000     0.561866666667     0.752200000000     0          
O        O      0.222233333333     0.535966666667     0.833300000000     0          
T        Si     0.332400000000     0.584866666667     0.706700000000     0          
T        Si     0.222400000000     0.523700000000     0.783100000000     0          
O        O      0.104900000000     0.444433333333     0.333300000000     0          
O        O      0.098766666667     0.438133333333     0.247800000000     0          
O        O      0.019600000000     0.464033333333     0.166700000000     0          
T        Si     0.080866666667     0.415133333333     0.293300000000     0          
T        Si     0.032033333333     0.476300000000     0.216900000000     0          
O        O      0.222233333333     0.660466666667     0.333300000000     0          
O        O      0.228533333333     0.660633333333     0.247800000000     0          
O        O      0.202633333333     0.555566666667     0.166700000000     0          
T        Si     0.251533333333     0.665733333333     0.293300000000     0          
T        Si     0.190366666667     0.555733333333     0.216900000000     0          
O        O      0.006200000000     0.561766666667     0.333300000000     0          
O        O      0.006033333333     0.567900000000     0.247800000000     0          
O        O      0.111100000000     0.647066666667     0.166700000000     0          
T        Si     0.000933333333     0.585800000000     0.293300000000     0          
T        Si     0.110933333333     0.634633333333     0.216900000000     0          
O        O      0.179288888889     0.358544444444     0.628833333333     0          
O        O      0.117422222222     0.345677777778     0.581133333333     0          
O        O      0.153788888889     0.410244444444     0.630033333333     0          
O        O      0.091522222222     0.424844444444     0.500033333333     0          
O        O      0.043622222222     0.420544444444     0.563533333333     0          
O        O      0.064588888889     0.365611111111     0.556333333333     0          
T        Si     0.140422222222     0.363577777778     0.626633333333     0          
T        Si     0.079255555556     0.412411111111     0.550233333333     0          
O        O      0.308122222222     0.487411111111     0.628833333333     0          
O        O      0.320988888889     0.438411111111     0.581133333333     0          
O        O      0.256422222222     0.410211111111     0.630033333333     0          
O        O      0.246122222222     0.623077777778     0.563533333333     0          
O        O      0.301055555556     0.365644444444     0.556333333333     0          
T        Si     0.303088888889     0.443511111111     0.626633333333     0          
T        Si     0.254255555556     0.333511111111     0.550233333333     0          
O        O      0.179255555556     0.487377777778     0.628833333333     0          
O        O      0.228255555556     0.549244444444     0.581133333333     0          
O        O      0.256455555556     0.512877777778     0.630033333333     0          
O        O      0.333322222222     0.575144444444     0.500033333333     0          
O        O      0.043588888889     0.623044444444     0.563533333333     0          
O        O      0.301022222222     0.602077777778     0.556333333333     0          
T        Si     0.223155555556     0.526244444444     0.626633333333     0          
T        Si     0.333155555556     0.587411111111     0.550233333333     0          
O        O      0.136322222222     0.401511111111     0.037833333333     0          
O        O      0.123455555556     0.339644444444     0.085533333333     0          
O        O      0.188022222222     0.376011111111     0.036633333333     0          
O        O      0.198322222222     0.599177777778     0.103133333333     0          
O        O      0.143388888889     0.620144444444     0.110333333333     0          
T        Si     0.141355555556     0.362644444444     0.040033333333     0          
T        Si     0.190188888889     0.634811111111     0.116433333333     0          
O        O      0.333322222222     0.450644444444     0.000033333333     0          
O        O      0.265155555556     0.401477777778     0.037833333333     0          
O        O      0.327022222222     0.450477777778     0.085533333333     0          
O        O      0.290655555556     0.478677777778     0.036633333333     0          
O        O      0.067488888889     0.599144444444     0.103133333333     0          
O        O      0.046522222222     0.523244444444     0.110333333333     0          
T        Si     0.304022222222     0.445377777778     0.040033333333     0          
T        Si     0.031855555556     0.555377777778     0.116433333333     0          
O        O      0.216022222222     0.549344444444     0.000033333333     0          
O        O      0.265188888889     0.530344444444     0.037833333333     0          
O        O      0.216188888889     0.543211111111     0.085533333333     0          
O        O      0.187988888889     0.478644444444     0.036633333333     0          
O        O      0.067522222222     0.468344444444     0.103133333333     0          
O        O      0.143422222222     0.523277777778     0.110333333333     0          
T        Si     0.221288888889     0.525311111111     0.040033333333     0          
T        Si     0.111288888889     0.476477777778     0.116433333333     0          
O        O      0.333322222222     0.549344444444     0.000033333333     0          
O        O      0.327022222222     0.543211111111     0.085533333333     0          
T        Si     0.304022222222     0.525311111111     0.040033333333     0          
T        Si     0.031855555556     0.476477777778     0.116433333333     0          
O        O      0.117322222222     0.450644444444     0.000033333333     0          
O        O      0.123455555556     0.450477777778     0.085533333333     0          
T        Si     0.141355555556     0.445377777778     0.040033333333     0          
T        Si     0.190188888889     0.555377777778     0.116433333333     0          
O        O      0.216188888889     0.339644444444     0.085533333333     0          
T        Si     0.221288888889     0.362644444444     0.040033333333     0          
T        Si     0.111288888889     0.634811111111     0.116433333333     0          
O        O      0.320988888889     0.549244444444     0.581133333333     0          
O        O      0.241822222222     0.575144444444     0.500033333333     0          
T        Si     0.303088888889     0.526244444444     0.626633333333     0          
T        Si     0.254255555556     0.587411111111     0.550233333333     0          
O        O      0.117422222222     0.438411111111     0.581133333333     0          
T        Si     0.140422222222     0.443511111111     0.626633333333     0          
T        Si     0.079255555556     0.333511111111     0.550233333333     0          
O        O      0.228255555556     0.345677777778     0.581133333333     0          
O        O      0.333322222222     0.424844444444     0.500033333333     0          
T        Si     0.223155555556     0.363577777778     0.626633333333     0          
T        Si     0.333155555556     0.412411111111     0.550233333333     0          
O        O      0.000011111111     0.450655555556     0.999966666667     0          
O        O      0.068177777778     0.469655555556     0.962166666667     0          
O        O      0.006311111111     0.456788888889     0.914466666667     0          
O        O      0.042677777778     0.521355555556     0.963366666667     0          
O        O      0.265844444444     0.531655555556     0.896866666667     0          
O        O      0.286811111111     0.476722222222     0.889666666667     0          
T        Si     0.029311111111     0.474688888889     0.959966666667     0          
T        Si     0.301477777778     0.523522222222     0.883566666667     0          
O        O      0.197011111111     0.598522222222     0.962166666667     0          
O        O      0.209877777778     0.549522222222     0.914466666667     0          
O        O      0.145311111111     0.521322222222     0.963366666667     0          
O        O      0.135011111111     0.400855555556     0.896866666667     0          
O        O      0.189944444444     0.476755555556     0.889666666667     0          
T        Si     0.191977777778     0.554622222222     0.959966666667     0          
T        Si     0.143144444444     0.444622222222     0.883566666667     0          
O        O      0.117311111111     0.666655555556     0.999966666667     0          
O        O      0.068144444444     0.598488888889     0.962166666667     0          
O        O      0.117144444444     0.660355555556     0.914466666667     0          
O        O      0.145344444444     0.623988888889     0.963366666667     0          
O        O      0.265811111111     0.400822222222     0.896866666667     0          
O        O      0.189911111111     0.379855555556     0.889666666667     0          
T        Si     0.112044444444     0.637355555556     0.959966666667     0          
T        Si     0.222044444444     0.365188888889     0.883566666667     0          
O        O      0.025211111111     0.512622222222     0.371166666667     0          
O        O      0.012344444444     0.450755555556     0.418866666667     0          
O        O      0.076911111111     0.487122222222     0.369966666667     0          
O        O      0.087211111111     0.376955555556     0.436466666667     0          
O        O      0.032277777778     0.397922222222     0.443666666667     0          
T        Si     0.030244444444     0.473755555556     0.373366666667     0          
T        Si     0.079077777778     0.412588888889     0.449766666667     0          
O        O      0.154044444444     0.512588888889     0.371166666667     0          
O        O      0.215911111111     0.561588888889     0.418866666667     0          
O        O      0.179544444444     0.589788888889     0.369966666667     0          
O        O      0.241811111111     0.666655555556     0.499966666667     0          
O        O      0.289711111111     0.376922222222     0.436466666667     0          
O        O      0.268744444444     0.634355555556     0.443666666667     0          
T        Si     0.192911111111     0.556488888889     0.373366666667     0          
T        Si     0.254077777778     0.666488888889     0.449766666667     0          
O        O      0.154077777778     0.641455555556     0.371166666667     0          
O        O      0.105077777778     0.654322222222     0.418866666667     0          
O        O      0.076877777778     0.589755555556     0.369966666667     0          
O        O      0.000011111111     0.575155555556     0.499966666667     0          
O        O      0.289744444444     0.579455555556     0.436466666667     0          
O        O      0.032311111111     0.634388888889     0.443666666667     0          
T        Si     0.110177777778     0.636422222222     0.373366666667     0          
T        Si     0.000177777778     0.587588888889     0.449766666667     0          
O        O      0.215911111111     0.654322222222     0.418866666667     0          
T        Si     0.192911111111     0.636422222222     0.373366666667     0          
T        Si     0.254077777778     0.587588888889     0.449766666667     0          
O        O      0.012344444444     0.561588888889     0.418866666667     0          
O        O      0.091511111111     0.666655555556     0.499966666667     0          
T        Si     0.030244444444     0.556488888889     0.373366666667     0          
T        Si     0.079077777778     0.666488888889     0.449766666667     0          
O        O      0.105077777778     0.450755555556     0.418866666667     0          
O        O      0.000011111111     0.424855555556     0.499966666667     0          
T        Si     0.110177777778     0.473755555556     0.373366666667     0          
T        Si     0.000177777778     0.412588888889     0.449766666667     0          
O        O      0.216011111111     0.666655555556     0.999966666667     0          
O        O      0.209877777778     0.660355555556     0.914466666667     0          
T        Si     0.191977777778     0.637355555556     0.959966666667     0          
T        Si     0.143144444444     0.365188888889     0.883566666667     0          
O        O      0.000011111111     0.549355555556     0.999966666667     0          
O        O      0.006311111111     0.549522222222     0.914466666667     0          
T        Si     0.029311111111     0.554622222222     0.959966666667     0          
T        Si     0.301477777778     0.444622222222     0.883566666667     0          
O        O      0.117144444444     0.456788888889     0.914466666667     0          
T        Si     0.112044444444     0.474688888889     0.959966666667     0          
T        Si     0.222044444444     0.523522222222     0.883566666667     0          
O        O      0.222233333333     0.895100000000     0.333300000000     0          
O        O      0.290400000000     0.914100000000     0.295500000000     0          
O        O      0.228533333333     0.901233333333     0.247800000000     0          
O        O      0.264900000000     0.965800000000     0.296700000000     0          
O        O      0.202633333333     0.980400000000     0.166700000000     0          
O        O      0.154733333333     0.976100000000     0.230200000000     0          
O        O      0.175700000000     0.921166666667     0.223000000000     0          
T        Si     0.251533333333     0.919133333333     0.293300000000     0          
T        Si     0.190366666667     0.967966666667     0.216900000000     0          
O        O      0.104900000000     0.993800000000     0.333300000000     0          
O        O      0.085900000000     0.709633333333     0.295500000000     0          
O        O      0.098766666667     0.993966666667     0.247800000000     0          
O        O      0.034200000000     0.965766666667     0.296700000000     0          
O        O      0.019600000000     0.888900000000     0.166700000000     0          
O        O      0.023900000000     0.845300000000     0.230200000000     0          
O        O      0.078833333333     0.921200000000     0.223000000000     0          
T        Si     0.080866666667     0.999066666667     0.293300000000     0          
T        Si     0.032033333333     0.889066666667     0.216900000000     0          
O        O      0.006200000000     0.777766666667     0.333300000000     0          
O        O      0.290366666667     0.709600000000     0.295500000000     0          
O        O      0.006033333333     0.771466666667     0.247800000000     0          
O        O      0.034233333333     0.735100000000     0.296700000000     0          
O        O      0.111100000000     0.797366666667     0.166700000000     0          
O        O      0.154700000000     0.845266666667     0.230200000000     0          
O        O      0.078800000000     0.824300000000     0.223000000000     0          
T        Si     0.000933333333     0.748466666667     0.293300000000     0          
T        Si     0.110933333333     0.809633333333     0.216900000000     0          
O        O      0.228433333333     0.888900000000     0.666700000000     0          
O        O      0.247433333333     0.957066666667     0.704500000000     0          
O        O      0.234566666667     0.895200000000     0.752200000000     0          
O        O      0.299133333333     0.931566666667     0.703300000000     0          
O        O      0.313733333333     0.869300000000     0.833300000000     0          
O        O      0.309433333333     0.821400000000     0.769800000000     0          
O        O      0.254500000000     0.842366666667     0.777000000000     0          
T        Si     0.252466666667     0.918200000000     0.706700000000     0          
T        Si     0.301300000000     0.857033333333     0.783100000000     0          
O        O      0.111100000000     0.672866666667     0.666700000000     0          
O        O      0.042933333333     0.957033333333     0.704500000000     0          
O        O      0.104800000000     0.672700000000     0.752200000000     0          
O        O      0.068433333333     0.700900000000     0.703300000000     0          
O        O      0.130700000000     0.777766666667     0.833300000000     0          
O        O      0.178600000000     0.821366666667     0.769800000000     0          
O        O      0.157633333333     0.745466666667     0.777000000000     0          
T        Si     0.081800000000     0.667600000000     0.706700000000     0          
T        Si     0.142966666667     0.777600000000     0.783100000000     0          
O        O      0.327133333333     0.771566666667     0.666700000000     0          
O        O      0.042966666667     0.752566666667     0.704500000000     0          
O        O      0.327300000000     0.765433333333     0.752200000000     0          
O        O      0.299100000000     0.700866666667     0.703300000000     0          
O        O      0.222233333333     0.686266666667     0.833300000000     0          
O        O      0.178633333333     0.690566666667     0.769800000000     0          
O        O      0.254533333333     0.745500000000     0.777000000000     0          
T        Si     0.332400000000     0.747533333333     0.706700000000     0          
T        Si     0.222400000000     0.698700000000     0.783100000000     0          
O        O      0.111100000000     0.771566666667     0.666700000000     0          
O        O      0.104800000000     0.765433333333     0.752200000000     0          
O        O      0.130700000000     0.686266666667     0.833300000000     0          
T        Si     0.081800000000     0.747533333333     0.706700000000     0          
T        Si     0.142966666667     0.698700000000     0.783100000000     0          
O        O      0.228433333333     0.672866666667     0.666700000000     0          
O        O      0.234566666667     0.672700000000     0.752200000000     0          
O        O      0.313733333333     0.777766666667     0.833300000000     0          
T        Si     0.252466666667     0.667600000000     0.706700000000     0          
T        Si     0.301300000000     0.777600000000     0.783100000000     0          
O        O      0.327133333333     0.888900000000     0.666700000000     0          
O        O      0.327300000000     0.895200000000     0.752200000000     0          
O        O      0.222233333333     0.869300000000     0.833300000000     0          
T        Si     0.332400000000     0.918200000000     0.706700000000     0          
T        Si     0.222400000000     0.857033333333     0.783100000000     0          
O        O      0.104900000000     0.777766666667     0.333300000000     0          
O        O      0.098766666667     0.771466666667     0.247800000000     0          
O        O      0.019600000000     0.797366666667     0.166700000000     0          
T        Si     0.080866666667     0.748466666667     0.293300000000     0          
T        Si     0.032033333333     0.809633333333     0.216900000000     0          
O        O      0.222233333333     0.993800000000     0.333300000000     0          
O        O      0.228533333333     0.993966666667     0.247800000000     0          
O        O      0.202633333333     0.888900000000     0.166700000000     0          
T        Si     0.251533333333     0.999066666667     0.293300000000     0          
T        Si     0.190366666667     0.889066666667     0.216900000000     0          
O        O      0.006200000000     0.895100000000     0.333300000000     0          
O        O      0.006033333333     0.901233333333     0.247800000000     0          
O        O      0.111100000000     0.980400000000     0.166700000000     0          
T        Si     0.000933333333     0.919133333333     0.293300000000     0          
T        Si     0.110933333333     0.967966666667     0.216900000000     0          
O        O      0.179288888889     0.691877777778     0.628833333333     0          
O        O      0.117422222222     0.679011111111     0.581133333333     0          
O        O      0.153788888889     0.743577777778     0.630033333333     0          
O        O      0.091522222222     0.758177777778     0.500033333333     0          
O        O      0.043622222222     0.753877777778     0.563533333333     0          
O        O      0.064588888889     0.698944444444     0.556333333333     0          
T        Si     0.140422222222     0.696911111111     0.626633333333     0          
T        Si     0.079255555556     0.745744444444     0.550233333333     0          
O        O      0.308122222222     0.820744444444     0.628833333333     0          
O        O      0.320988888889     0.771744444444     0.581133333333     0          
O        O      0.256422222222     0.743544444444     0.630033333333     0          
O        O      0.246122222222     0.956411111111     0.563533333333     0          
O        O      0.301055555556     0.698977777778     0.556333333333     0          
T        Si     0.303088888889     0.776844444444     0.626633333333     0          
T        Si     0.254255555556     0.666844444444     0.550233333333     0          
O        O      0.179255555556     0.820711111111     0.628833333333     0          
O        O      0.228255555556     0.882577777778     0.581133333333     0          
O        O      0.256455555556     0.846211111111     0.630033333333     0          
O        O      0.333322222222     0.908477777778     0.500033333333     0          
O        O      0.043588888889     0.956377777778     0.563533333333     0          
O        O      0.301022222222     0.935411111111     0.556333333333     0          
T        Si     0.223155555556     0.859577777778     0.626633333333     0          
T        Si     0.333155555556     0.920744444444     0.550233333333     0          
O        O      0.136322222222     0.734844444444     0.037833333333     0          
O        O      0.123455555556     0.672977777778     0.085533333333     0          
O        O      0.188022222222     0.709344444444     0.036633333333     0          
O        O      0.198322222222     0.932511111111     0.103133333333     0          
O        O      0.143388888889     0.953477777778     0.110333333333     0          
T        Si     0.141355555556     0.695977777778     0.040033333333     0          
T        Si     0.190188888889     0.968144444444     0.116433333333     0          
O        O      0.333322222222     0.783977777778     0.000033333333     0          
O        O      0.265155555556     0.734811111111     0.037833333333     0          
O        O      0.327022222222     0.783811111111     0.085533333333     0          
O        O      0.290655555556     0.812011111111     0.036633333333     0          
O        O      0.067488888889     0.932477777778     0.103133333333     0          
O        O      0.046522222222     0.856577777778     0.110333333333     0          
T        Si     0.304022222222     0.778711111111     0.040033333333     0          
T        Si     0.031855555556     0.888711111111     0.116433333333     0          
O        O      0.216022222222     0.882677777778     0.000033333333     0          
O        O      0.265188888889     0.863677777778     0.037833333333     0          
O        O      0.216188888889     0.876544444444     0.085533333333     0          
O        O      0.187988888889     0.811977777778     0.036633333333     0          
O        O      0.067522222222     0.801677777778     0.103133333333     0          
O        O      0.143422222222     0.856611111111     0.110333333333     0          
T        Si     0.221288888889     0.858644444444     0.040033333333     0          
T        Si     0.111288888889     0.809811111111     0.116433333333     0          
O        O      0.333322222222     0.882677777778     0.000033333333     0          
O        O      0.327022222222     0.876544444444     0.085533333333     0          
T        Si     0.304022222222     0.858644444444     0.040033333333     0          
T        Si     0.031855555556     0.809811111111     0.116433333333     0          
O        O      0.117322222222     0.783977777778     0.000033333333     0          
O        O      0.123455555556     0.783811111111     0.085533333333     0          
T        Si     0.141355555556     0.778711111111     0.040033333333     0          
T        Si     0.190188888889     0.888711111111     0.116433333333     0          
O        O      0.216188888889     0.672977777778     0.085533333333     0          
T        Si     0.221288888889     0.695977777778     0.040033333333     0          
T        Si     0.111288888889     0.968144444444     0.116433333333     0          
O        O      0.320988888889     0.882577777778     0.581133333333     0          
O        O      0.241822222222     0.908477777778     0.500033333333     0          
T        Si     0.303088888889     0.859577777778     0.626633333333     0          
T        Si     0.254255555556     0.920744444444     0.550233333333     0          
O        O      0.117422222222     0.771744444444     0.581133333333     0          
T        Si     0.140422222222     0.776844444444     0.626633333333     0          
T        Si     0.079255555556     0.666844444444     0.550233333333     0          
O        O      0.228255555556     0.679011111111     0.581133333333     0          
O        O      0.333322222222     0.758177777778     0.500033333333     0          
T        Si     0.223155555556     0.696911111111     0.626633333333     0          
T        Si     0.333155555556     0.745744444444     0.550233333333     0          
O        O      0.000011111111     0.783988888889     0.999966666667     0          
O        O      0.068177777778     0.802988888889     0.962166666667     0          
O        O      0.006311111111     0.790122222222     0.914466666667     0          
O        O      0.042677777778     0.854688888889     0.963366666667     0          
O        O      0.265844444444     0.864988888889     0.896866666667     0          
O        O      0.286811111111     0.810055555556     0.889666666667     0          
T        Si     0.029311111111     0.808022222222     0.959966666667     0          
T        Si     0.301477777778     0.856855555556     0.883566666667     0          
O        O      0.197011111111     0.931855555556     0.962166666667     0          
O        O      0.209877777778     0.882855555556     0.914466666667     0          
O        O      0.145311111111     0.854655555556     0.963366666667     0          
O        O      0.135011111111     0.734188888889     0.896866666667     0          
O        O      0.189944444444     0.810088888889     0.889666666667     0          
T        Si     0.191977777778     0.887955555556     0.959966666667     0          
T        Si     0.143144444444     0.777955555556     0.883566666667     0          
O        O      0.068144444444     0.931822222222     0.962166666667     0          
O        O      0.117144444444     0.993688888889     0.914466666667     0          
O        O      0.145344444444     0.957322222222     0.963366666667     0          
O        O      0.265811111111     0.734155555556     0.896866666667     0          
O        O      0.189911111111     0.713188888889     0.889666666667     0          
T        Si     0.112044444444     0.970688888889     0.959966666667     0          
T        Si     0.222044444444     0.698522222222     0.883566666667     0          
O        O      0.025211111111     0.845955555556     0.371166666667     0          
O        O      0.012344444444     0.784088888889     0.418866666667     0          
O        O      0.076911111111     0.820455555556     0.369966666667     0          
O        O      0.087211111111     0.710288888889     0.436466666667     0          
O        O      0.032277777778     0.731255555556     0.443666666667     0          
T        Si     0.030244444444     0.807088888889     0.373366666667     0          
T        Si     0.079077777778     0.745922222222     0.449766666667     0          
O        O      0.154044444444     0.845922222222     0.371166666667     0          
O        O      0.215911111111     0.894922222222     0.418866666667     0          
O        O      0.179544444444     0.923122222222     0.369966666667     0          
O        O      0.289711111111     0.710255555556     0.436466666667     0          
O        O      0.268744444444     0.967688888889     0.443666666667     0          
T        Si     0.192911111111     0.889822222222     0.373366666667     0          
T        Si     0.254077777778     0.999822222222     0.449766666667     0          
O        O      0.154077777778     0.974788888889     0.371166666667     0          
O        O      0.105077777778     0.987655555556     0.418866666667     0          
O        O      0.076877777778     0.923088888889     0.369966666667     0          
O        O      0.000011111111     0.908488888889     0.499966666667     0          
O        O      0.289744444444     0.912788888889     0.436466666667     0          
O        O      0.032311111111     0.967722222222     0.443666666667     0          
T        Si     0.110177777778     0.969755555556     0.373366666667     0          
T        Si     0.000177777778     0.920922222222     0.449766666667     0          
O        O      0.215911111111     0.987655555556     0.418866666667     0          
T        Si     0.192911111111     0.969755555556     0.373366666667     0          
T        Si     0.254077777778     0.920922222222     0.449766666667     0          
O        O      0.012344444444     0.894922222222     0.418866666667     0          
T        Si     0.030244444444     0.889822222222     0.373366666667     0          
T        Si     0.079077777778     0.999822222222     0.449766666667     0          
O        O      0.105077777778     0.784088888889     0.418866666667     0          
O        O      0.000011111111     0.758188888889     0.499966666667     0          
T        Si     0.110177777778     0.807088888889     0.373366666667     0          
T        Si     0.000177777778     0.745922222222     0.449766666667     0          
O        O      0.209877777778     0.993688888889     0.914466666667     0          
T        Si     0.191977777778     0.970688888889     0.959966666667     0          
T        Si     0.143144444444     0.698522222222     0.883566666667     0          
O        O      0.000011111111     0.882688888889     0.999966666667     0          
O        O      0.006311111111     0.882855555556     0.914466666667     0          
T        Si     0.029311111111     0.887955555556     0.959966666667     0          
T        Si     0.301477777778     0.777955555556     0.883566666667     0          
O        O      0.117144444444     0.790122222222     0.914466666667     0          
T        Si     0.112044444444     0.808022222222     0.959966666667     0          
T        Si     0.222044444444     0.856855555556     0.883566666667     0          
O        O      0.555566666667     0.228433333333     0.333300000000     0          
O        O      0.623733333333     0.247433333333     0.295500000000     0          
O        O      0.561866666667     0.234566666667     0.247800000000     0          
O        O      0.598233333333     0.299133333333     0.296700000000     0          
O        O      0.535966666667     0.313733333333     0.166700000000     0          
O        O      0.488066666667     0.309433333333     0.230200000000     0          
O        O      0.509033333333     0.254500000000     0.223000000000     0          
T        Si     0.584866666667     0.252466666667     0.293300000000     0          
T        Si     0.523700000000     0.301300000000     0.216900000000     0          
O        O      0.438233333333     0.327133333333     0.333300000000     0          
O        O      0.419233333333     0.042966666667     0.295500000000     0          
O        O      0.432100000000     0.327300000000     0.247800000000     0          
O        O      0.367533333333     0.299100000000     0.296700000000     0          
O        O      0.352933333333     0.222233333333     0.166700000000     0          
O        O      0.357233333333     0.178633333333     0.230200000000     0          
O        O      0.412166666667     0.254533333333     0.223000000000     0          
T        Si     0.414200000000     0.332400000000     0.293300000000     0          
T        Si     0.365366666667     0.222400000000     0.216900000000     0          
O        O      0.339533333333     0.111100000000     0.333300000000     0          
O        O      0.623700000000     0.042933333333     0.295500000000     0          
O        O      0.339366666667     0.104800000000     0.247800000000     0          
O        O      0.367566666667     0.068433333333     0.296700000000     0          
O        O      0.444433333333     0.130700000000     0.166700000000     0          
O        O      0.488033333333     0.178600000000     0.230200000000     0          
O        O      0.412133333333     0.157633333333     0.223000000000     0          
T        Si     0.334266666667     0.081800000000     0.293300000000     0          
T        Si     0.444266666667     0.142966666667     0.216900000000     0          
O        O      0.561766666667     0.222233333333     0.666700000000     0          
O        O      0.580766666667     0.290400000000     0.704500000000     0          
O        O      0.567900000000     0.228533333333     0.752200000000     0          
O        O      0.632466666667     0.264900000000     0.703300000000     0          
O        O      0.647066666667     0.202633333333     0.833300000000     0          
O        O      0.642766666667     0.154733333333     0.769800000000     0          
O        O      0.587833333333     0.175700000000     0.777000000000     0          
T        Si     0.585800000000     0.251533333333     0.706700000000     0          
T        Si     0.634633333333     0.190366666667     0.783100000000     0          
O        O      0.444433333333     0.006200000000     0.666700000000     0          
O        O      0.376266666667     0.290366666667     0.704500000000     0          
O        O      0.438133333333     0.006033333333     0.752200000000     0          
O        O      0.401766666667     0.034233333333     0.703300000000     0          
O        O      0.464033333333     0.111100000000     0.833300000000     0          
O        O      0.511933333333     0.154700000000     0.769800000000     0          
O        O      0.490966666667     0.078800000000     0.777000000000     0          
T        Si     0.415133333333     0.000933333333     0.706700000000     0          
T        Si     0.476300000000     0.110933333333     0.783100000000     0          
O        O      0.660466666667     0.104900000000     0.666700000000     0          
O        O      0.376300000000     0.085900000000     0.704500000000     0          
O        O      0.660633333333     0.098766666667     0.752200000000     0          
O        O      0.632433333333     0.034200000000     0.703300000000     0          
O        O      0.555566666667     0.019600000000     0.833300000000     0          
O        O      0.511966666667     0.023900000000     0.769800000000     0          
O        O      0.587866666667     0.078833333333     0.777000000000     0          
T        Si     0.665733333333     0.080866666667     0.706700000000     0          
T        Si     0.555733333333     0.032033333333     0.783100000000     0          
O        O      0.444433333333     0.104900000000     0.666700000000     0          
O        O      0.438133333333     0.098766666667     0.752200000000     0          
O        O      0.464033333333     0.019600000000     0.833300000000     0          
T        Si     0.415133333333     0.080866666667     0.706700000000     0          
T        Si     0.476300000000     0.032033333333     0.783100000000     0          
O        O      0.561766666667     0.006200000000     0.666700000000     0          
O        O      0.567900000000     0.006033333333     0.752200000000     0          
O        O      0.647066666667     0.111100000000     0.833300000000     0          
T        Si     0.585800000000     0.000933333333     0.706700000000     0          
T        Si     0.634633333333     0.110933333333     0.783100000000     0          
O        O      0.660466666667     0.222233333333     0.666700000000     0          
O        O      0.660633333333     0.228533333333     0.752200000000     0          
O        O      0.555566666667     0.202633333333     0.833300000000     0          
T        Si     0.665733333333     0.251533333333     0.706700000000     0          
T        Si     0.555733333333     0.190366666667     0.783100000000     0          
O        O      0.438233333333     0.111100000000     0.333300000000     0          
O        O      0.432100000000     0.104800000000     0.247800000000     0          
O        O      0.352933333333     0.130700000000     0.166700000000     0          
T        Si     0.414200000000     0.081800000000     0.293300000000     0          
T        Si     0.365366666667     0.142966666667     0.216900000000     0          
O        O      0.555566666667     0.327133333333     0.333300000000     0          
O        O      0.561866666667     0.327300000000     0.247800000000     0          
O        O      0.535966666667     0.222233333333     0.166700000000     0          
T        Si     0.584866666667     0.332400000000     0.293300000000     0          
T        Si     0.523700000000     0.222400000000     0.216900000000     0          
O        O      0.339533333333     0.228433333333     0.333300000000     0          
O        O      0.339366666667     0.234566666667     0.247800000000     0          
O        O      0.444433333333     0.313733333333     0.166700000000     0          
T        Si     0.334266666667     0.252466666667     0.293300000000     0          
T        Si     0.444266666667     0.301300000000     0.216900000000     0          
O        O      0.512622222222     0.025211111111     0.628833333333     0          
O        O      0.450755555556     0.012344444444     0.581133333333     0          
O        O      0.487122222222     0.076911111111     0.630033333333     0          
O        O      0.424855555556     0.091511111111     0.500033333333     0          
O        O      0.376955555556     0.087211111111     0.563533333333     0          
O        O      0.397922222222     0.032277777778     0.556333333333     0          
T        Si     0.473755555556     0.030244444444     0.626633333333     0          
T        Si     0.412588888889     0.079077777778     0.550233333333     0          
O        O      0.641455555556     0.154077777778     0.628833333333     0          
O        O      0.654322222222     0.105077777778     0.581133333333     0          
O        O      0.589755555556     0.076877777778     0.630033333333     0          
O        O      0.575155555556     0.000011111111     0.500033333333     0          
O        O      0.579455555556     0.289744444444     0.563533333333     0          
O        O      0.634388888889     0.032311111111     0.556333333333     0          
T        Si     0.636422222222     0.110177777778     0.626633333333     0          
T        Si     0.587588888889     0.000177777778     0.550233333333     0          
O        O      0.512588888889     0.154044444444     0.628833333333     0          
O        O      0.561588888889     0.215911111111     0.581133333333     0          
O        O      0.589788888889     0.179544444444     0.630033333333     0          
O        O      0.666655555556     0.241811111111     0.500033333333     0          
O        O      0.376922222222     0.289711111111     0.563533333333     0          
O        O      0.634355555556     0.268744444444     0.556333333333     0          
T        Si     0.556488888889     0.192911111111     0.626633333333     0          
T        Si     0.666488888889     0.254077777778     0.550233333333     0          
O        O      0.450655555556     0.000011111111     0.000033333333     0          
O        O      0.469655555556     0.068177777778     0.037833333333     0          
O        O      0.456788888889     0.006311111111     0.085533333333     0          
O        O      0.521355555556     0.042677777778     0.036633333333     0          
O        O      0.531655555556     0.265844444444     0.103133333333     0          
O        O      0.476722222222     0.286811111111     0.110333333333     0          
T        Si     0.474688888889     0.029311111111     0.040033333333     0          
T        Si     0.523522222222     0.301477777778     0.116433333333     0          
O        O      0.666655555556     0.117311111111     0.000033333333     0          
O        O      0.598488888889     0.068144444444     0.037833333333     0          
O        O      0.660355555556     0.117144444444     0.085533333333     0          
O        O      0.623988888889     0.145344444444     0.036633333333     0          
O        O      0.400822222222     0.265811111111     0.103133333333     0          
O        O      0.379855555556     0.189911111111     0.110333333333     0          
T        Si     0.637355555556     0.112044444444     0.040033333333     0          
T        Si     0.365188888889     0.222044444444     0.116433333333     0          
O        O      0.549355555556     0.216011111111     0.000033333333     0          
O        O      0.598522222222     0.197011111111     0.037833333333     0          
O        O      0.549522222222     0.209877777778     0.085533333333     0          
O        O      0.521322222222     0.145311111111     0.036633333333     0          
O        O      0.400855555556     0.135011111111     0.103133333333     0          
O        O      0.476755555556     0.189944444444     0.110333333333     0          
T        Si     0.554622222222     0.191977777778     0.040033333333     0          
T        Si     0.444622222222     0.143144444444     0.116433333333     0          
O        O      0.666655555556     0.216011111111     0.000033333333     0          
O        O      0.660355555556     0.209877777778     0.085533333333     0          
T        Si     0.637355555556     0.191977777778     0.040033333333     0          
T        Si     0.365188888889     0.143144444444     0.116433333333     0          
O        O      0.450655555556     0.117311111111     0.000033333333     0          
O        O      0.456788888889     0.117144444444     0.085533333333     0          
T        Si     0.474688888889     0.112044444444     0.040033333333     0          
T        Si     0.523522222222     0.222044444444     0.116433333333     0          
O        O      0.549355555556     0.000011111111     0.000033333333     0          
O        O      0.549522222222     0.006311111111     0.085533333333     0          
T        Si     0.554622222222     0.029311111111     0.040033333333     0          
T        Si     0.444622222222     0.301477777778     0.116433333333     0          
O        O      0.654322222222     0.215911111111     0.581133333333     0          
O        O      0.575155555556     0.241811111111     0.500033333333     0          
T        Si     0.636422222222     0.192911111111     0.626633333333     0          
T        Si     0.587588888889     0.254077777778     0.550233333333     0          
O        O      0.450755555556     0.105077777778     0.581133333333     0          
O        O      0.424855555556     0.000011111111     0.500033333333     0          
T        Si     0.473755555556     0.110177777778     0.626633333333     0          
T        Si     0.412588888889     0.000177777778     0.550233333333     0          
O        O      0.561588888889     0.012344444444     0.581133333333     0          
O        O      0.666655555556     0.091511111111     0.500033333333     0          
T        Si     0.556488888889     0.030244444444     0.626633333333     0          
T        Si     0.666488888889     0.079077777778     0.550233333333     0          
O        O      0.401511111111     0.136322222222     0.962166666667     0          
O        O      0.339644444444     0.123455555556     0.914466666667     0          
O        O      0.376011111111     0.188022222222     0.963366666667     0          
O        O      0.599177777778     0.198322222222     0.896866666667     0          
O        O      0.620144444444     0.143388888889     0.889666666667     0          
T        Si     0.362644444444     0.141355555556     0.959966666667     0          
T        Si     0.634811111111     0.190188888889     0.883566666667     0          
O        O      0.530344444444     0.265188888889     0.962166666667     0          
O        O      0.543211111111     0.216188888889     0.914466666667     0          
O        O      0.478644444444     0.187988888889     0.963366666667     0          
O        O      0.468344444444     0.067522222222     0.896866666667     0          
O        O      0.523277777778     0.143422222222     0.889666666667     0          
T        Si     0.525311111111     0.221288888889     0.959966666667     0          
T        Si     0.476477777778     0.111288888889     0.883566666667     0          
O        O      0.450644444444     0.333322222222     0.999966666667     0          
O        O      0.401477777778     0.265155555556     0.962166666667     0          
O        O      0.450477777778     0.327022222222     0.914466666667     0          
O        O      0.478677777778     0.290655555556     0.963366666667     0          
O        O      0.599144444444     0.067488888889     0.896866666667     0          
O        O      0.523244444444     0.046522222222     0.889666666667     0          
T        Si     0.445377777778     0.304022222222     0.959966666667     0          
T        Si     0.555377777778     0.031855555556     0.883566666667     0          
O        O      0.358544444444     0.179288888889     0.371166666667     0          
O        O      0.345677777778     0.117422222222     0.418866666667     0          
O        O      0.410244444444     0.153788888889     0.369966666667     0          
O        O      0.420544444444     0.043622222222     0.436466666667     0          
O        O      0.365611111111     0.064588888889     0.443666666667     0          
T        Si     0.363577777778     0.140422222222     0.373366666667     0          
T        Si     0.412411111111     0.079255555556     0.449766666667     0          
O        O      0.487377777778     0.179255555556     0.371166666667     0          
O        O      0.549244444444     0.228255555556     0.418866666667     0          
O        O      0.512877777778     0.256455555556     0.369966666667     0          
O        O      0.575144444444     0.333322222222     0.499966666667     0          
O        O      0.623044444444     0.043588888889     0.436466666667     0          
O        O      0.602077777778     0.301022222222     0.443666666667     0          
T        Si     0.526244444444     0.223155555556     0.373366666667     0          
T        Si     0.587411111111     0.333155555556     0.449766666667     0          
O        O      0.487411111111     0.308122222222     0.371166666667     0          
O        O      0.438411111111     0.320988888889     0.418866666667     0          
O        O      0.410211111111     0.256422222222     0.369966666667     0          
O        O      0.623077777778     0.246122222222     0.436466666667     0          
O        O      0.365644444444     0.301055555556     0.443666666667     0          
T        Si     0.443511111111     0.303088888889     0.373366666667     0          
T        Si     0.333511111111     0.254255555556     0.449766666667     0          
O        O      0.549244444444     0.320988888889     0.418866666667     0          
T        Si     0.526244444444     0.303088888889     0.373366666667     0          
T        Si     0.587411111111     0.254255555556     0.449766666667     0          
O        O      0.345677777778     0.228255555556     0.418866666667     0          
O        O      0.424844444444     0.333322222222     0.499966666667     0          
T        Si     0.363577777778     0.223155555556     0.373366666667     0          
T        Si     0.412411111111     0.333155555556     0.449766666667     0          
O        O      0.438411111111     0.117422222222     0.418866666667     0          
T        Si     0.443511111111     0.140422222222     0.373366666667     0          
T        Si     0.333511111111     0.079255555556     0.449766666667     0          
O        O      0.549344444444     0.333322222222     0.999966666667     0          
O        O      0.543211111111     0.327022222222     0.914466666667     0          
T        Si     0.525311111111     0.304022222222     0.959966666667     0          
T        Si     0.476477777778     0.031855555556     0.883566666667     0          
O        O      0.339644444444     0.216188888889     0.914466666667     0          
T        Si     0.362644444444     0.221288888889     0.959966666667     0          
T        Si     0.634811111111     0.111288888889     0.883566666667     0          
O        O      0.450477777778     0.123455555556     0.914466666667     0          
T        Si     0.445377777778     0.141355555556     0.959966666667     0          
T        Si     0.555377777778     0.190188888889     0.883566666667     0          
O        O      0.555566666667     0.561766666667     0.333300000000     0          
O        O      0.623733333333     0.580766666667     0.295500000000     0          
O        O      0.561866666667     0.567900000000     0.247800000000     0          
O        O      0.598233333333     0.632466666667     0.296700000000     0          
O        O      0.535966666667     0.647066666667     0.166700000000     0          
O        O      0.488066666667     0.642766666667     0.230200000000     0          
O        O      0.509033333333     0.587833333333     0.223000000000     0          
T        Si     0.584866666667     0.585800000000     0.293300000000     0          
T        Si     0.523700000000     0.634633333333     0.216900000000     0          
O        O      0.438233333333     0.660466666667     0.333300000000     0          
O        O      0.419233333333     0.376300000000     0.295500000000     0          
O        O      0.432100000000     0.660633333333     0.247800000000     0          
O        O      0.367533333333     0.632433333333     0.296700000000     0          
O        O      0.352933333333     0.555566666667     0.166700000000     0          
O        O      0.357233333333     0.511966666667     0.230200000000     0          
O        O      0.412166666667     0.587866666667     0.223000000000     0          
T        Si     0.414200000000     0.665733333333     0.293300000000     0          
T        Si     0.365366666667     0.555733333333     0.216900000000     0          
O        O      0.339533333333     0.444433333333     0.333300000000     0          
O        O      0.623700000000     0.376266666667     0.295500000000     0          
O        O      0.339366666667     0.438133333333     0.247800000000     0          
O        O      0.367566666667     0.401766666667     0.296700000000     0          
O        O      0.444433333333     0.464033333333     0.166700000000     0          
O        O      0.488033333333     0.511933333333     0.230200000000     0          
O        O      0.412133333333     0.490966666667     0.223000000000     0          
T        Si     0.334266666667     0.415133333333     0.293300000000     0          
T        Si     0.444266666667     0.476300000000     0.216900000000     0          
O        O      0.561766666667     0.555566666667     0.666700000000     0          
O        O      0.580766666667     0.623733333333     0.704500000000     0          
O        O      0.567900000000     0.561866666667     0.752200000000     0          
O        O      0.632466666667     0.598233333333     0.703300000000     0          
O        O      0.647066666667     0.535966666667     0.833300000000     0          
O        O      0.642766666667     0.488066666667     0.769800000000     0          
O        O      0.587833333333     0.509033333333     0.777000000000     0          
T        Si     0.585800000000     0.584866666667     0.706700000000     0          
T        Si     0.634633333333     0.523700000000     0.783100000000     0          
O        O      0.444433333333     0.339533333333     0.666700000000     0          
O        O      0.376266666667     0.623700000000     0.704500000000     0          
O        O      0.438133333333     0.339366666667     0.752200000000     0          
O        O      0.401766666667     0.367566666667     0.703300000000     0          
O        O      0.464033333333     0.444433333333     0.833300000000     0          
O        O      0.511933333333     0.488033333333     0.769800000000     0          
O        O      0.490966666667     0.412133333333     0.777000000000     0          
T        Si     0.415133333333     0.334266666667     0.706700000000     0          
T        Si     0.476300000000     0.444266666667     0.783100000000     0          
O        O      0.660466666667     0.438233333333     0.666700000000     0          
O        O      0.376300000000     0.419233333333     0.704500000000     0          
O        O      0.660633333333     0.432100000000     0.752200000000     0          
O        O      0.632433333333     0.367533333333     0.703300000000     0          
O        O      0.555566666667     0.352933333333     0.833300000000     0          
O        O      0.511966666667     0.357233333333     0.769800000000     0          
O        O      0.587866666667     0.412166666667     0.777000000000     0          
T        Si     0.665733333333     0.414200000000     0.706700000000     0          
T        Si     0.555733333333     0.365366666667     0.783100000000     0          
O        O      0.444433333333     0.438233333333     0.666700000000     0          
O        O      0.438133333333     0.432100000000     0.752200000000     0          
O        O      0.464033333333     0.352933333333     0.833300000000     0          
T        Si     0.415133333333     0.414200000000     0.706700000000     0          
T        Si     0.476300000000     0.365366666667     0.783100000000     0          
O        O      0.561766666667     0.339533333333     0.666700000000     0          
O        O      0.567900000000     0.339366666667     0.752200000000     0          
O        O      0.647066666667     0.444433333333     0.833300000000     0          
T        Si     0.585800000000     0.334266666667     0.706700000000     0          
T        Si     0.634633333333     0.444266666667     0.783100000000     0          
O        O      0.660466666667     0.555566666667     0.666700000000     0          
O        O      0.660633333333     0.561866666667     0.752200000000     0          
O        O      0.555566666667     0.535966666667     0.833300000000     0          
T        Si     0.665733333333     0.584866666667     0.706700000000     0          
T        Si     0.555733333333     0.523700000000     0.783100000000     0          
O        O      0.438233333333     0.444433333333     0.333300000000     0          
O        O      0.432100000000     0.438133333333     0.247800000000     0          
O        O      0.352933333333     0.464033333333     0.166700000000     0          
T        Si     0.414200000000     0.415133333333     0.293300000000     0          
T        Si     0.365366666667     0.476300000000     0.216900000000     0          
O        O      0.555566666667     0.660466666667     0.333300000000     0          
O        O      0.561866666667     0.660633333333     0.247800000000     0          
O        O      0.535966666667     0.555566666667     0.166700000000     0          
T        Si     0.584866666667     0.665733333333     0.293300000000     0          
T        Si     0.523700000000     0.555733333333     0.216900000000     0          
O        O      0.339533333333     0.561766666667     0.333300000000     0          
O        O      0.339366666667     0.567900000000     0.247800000000     0          
O        O      0.444433333333     0.647066666667     0.166700000000     0          
T        Si     0.334266666667     0.585800000000     0.293300000000     0          
T        Si     0.444266666667     0.634633333333     0.216900000000     0          
O        O      0.512622222222     0.358544444444     0.628833333333     0          
O        O      0.450755555556     0.345677777778     0.581133333333     0          
O        O      0.487122222222     0.410244444444     0.630033333333     0          
O        O      0.424855555556     0.424844444444     0.500033333333     0          
O        O      0.376955555556     0.420544444444     0.563533333333     0          
O        O      0.397922222222     0.365611111111     0.556333333333     0          
T        Si     0.473755555556     0.363577777778     0.626633333333     0          
T        Si     0.412588888889     0.412411111111     0.550233333333     0          
O        O      0.641455555556     0.487411111111     0.628833333333     0          
O        O      0.654322222222     0.438411111111     0.581133333333     0          
O        O      0.589755555556     0.410211111111     0.630033333333     0          
O        O      0.579455555556     0.623077777778     0.563533333333     0          
O        O      0.634388888889     0.365644444444     0.556333333333     0          
T        Si     0.636422222222     0.443511111111     0.626633333333     0          
T        Si     0.587588888889     0.333511111111     0.550233333333     0          
O        O      0.512588888889     0.487377777778     0.628833333333     0          
O        O      0.561588888889     0.549244444444     0.581133333333     0          
O        O      0.589788888889     0.512877777778     0.630033333333     0          
O        O      0.666655555556     0.575144444444     0.500033333333     0          
O        O      0.376922222222     0.623044444444     0.563533333333     0          
O        O      0.634355555556     0.602077777778     0.556333333333     0          
T        Si     0.556488888889     0.526244444444     0.626633333333     0          
T        Si     0.666488888889     0.587411111111     0.550233333333     0          
O        O      0.469655555556     0.401511111111     0.037833333333     0          
O        O      0.456788888889     0.339644444444     0.085533333333     0          
O        O      0.521355555556     0.376011111111     0.036633333333     0          
O        O      0.531655555556     0.599177777778     0.103133333333     0          
O        O      0.476722222222     0.620144444444     0.110333333333     0          
T        Si     0.474688888889     0.362644444444     0.040033333333     0          
T        Si     0.523522222222     0.634811111111     0.116433333333     0          
O        O      0.666655555556     0.450644444444     0.000033333333     0          
O        O      0.598488888889     0.401477777778     0.037833333333     0          
O        O      0.660355555556     0.450477777778     0.085533333333     0          
O        O      0.623988888889     0.478677777778     0.036633333333     0          
O        O      0.400822222222     0.599144444444     0.103133333333     0          
O        O      0.379855555556     0.523244444444     0.110333333333     0          
T        Si     0.637355555556     0.445377777778     0.040033333333     0          
T        Si     0.365188888889     0.555377777778     0.116433333333     0          
O        O      0.549355555556     0.549344444444     0.000033333333     0          
O        O      0.598522222222     0.530344444444     0.037833333333     0          
O        O      0.549522222222     0.543211111111     0.085533333333     0          
O        O      0.521322222222     0.478644444444     0.036633333333     0          
O        O      0.400855555556     0.468344444444     0.103133333333     0          
O        O      0.476755555556     0.523277777778     0.110333333333     0          
T        Si     0.554622222222     0.525311111111     0.040033333333     0          
T        Si     0.444622222222     0.476477777778     0.116433333333     0          
O        O      0.666655555556     0.549344444444     0.000033333333     0          
O        O      0.660355555556     0.543211111111     0.085533333333     0          
T        Si     0.637355555556     0.525311111111     0.040033333333     0          
T        Si     0.365188888889     0.476477777778     0.116433333333     0          
O        O      0.450655555556     0.450644444444     0.000033333333     0          
O        O      0.456788888889     0.450477777778     0.085533333333     0          
T        Si     0.474688888889     0.445377777778     0.040033333333     0          
T        Si     0.523522222222     0.555377777778     0.116433333333     0          
O        O      0.549522222222     0.339644444444     0.085533333333     0          
T        Si     0.554622222222     0.362644444444     0.040033333333     0          
T        Si     0.444622222222     0.634811111111     0.116433333333     0          
O        O      0.654322222222     0.549244444444     0.581133333333     0          
O        O      0.575155555556     0.575144444444     0.500033333333     0          
T        Si     0.636422222222     0.526244444444     0.626633333333     0          
T        Si     0.587588888889     0.587411111111     0.550233333333     0          
O        O      0.450755555556     0.438411111111     0.581133333333     0          
T        Si     0.473755555556     0.443511111111     0.626633333333     0          
T        Si     0.412588888889     0.333511111111     0.550233333333     0          
O        O      0.561588888889     0.345677777778     0.581133333333     0          
O        O      0.666655555556     0.424844444444     0.500033333333     0          
T        Si     0.556488888889     0.363577777778     0.626633333333     0          
T        Si     0.666488888889     0.412411111111     0.550233333333     0          
O        O      0.401511111111     0.469655555556     0.962166666667     0          
O        O      0.339644444444     0.456788888889     0.914466666667     0          
O        O      0.376011111111     0.521355555556     0.963366666667     0          
O        O      0.599177777778     0.531655555556     0.896866666667     0          
O        O      0.620144444444     0.476722222222     0.889666666667     0          
T        Si     0.362644444444     0.474688888889     0.959966666667     0          
T        Si     0.634811111111     0.523522222222     0.883566666667     0          
O        O      0.530344444444     0.598522222222     0.962166666667     0          
O        O      0.543211111111     0.549522222222     0.914466666667     0          
O        O      0.478644444444     0.521322222222     0.963366666667     0          
O        O      0.468344444444     0.400855555556     0.896866666667     0          
O        O      0.523277777778     0.476755555556     0.889666666667     0          
T        Si     0.525311111111     0.554622222222     0.959966666667     0          
T        Si     0.476477777778     0.444622222222     0.883566666667     0          
O        O      0.450644444444     0.666655555556     0.999966666667     0          
O        O      0.401477777778     0.598488888889     0.962166666667     0          
O        O      0.450477777778     0.660355555556     0.914466666667     0          
O        O      0.478677777778     0.623988888889     0.963366666667     0          
O        O      0.599144444444     0.400822222222     0.896866666667     0          
O        O      0.523244444444     0.379855555556     0.889666666667     0          
T        Si     0.445377777778     0.637355555556     0.959966666667     0          
T        Si     0.555377777778     0.365188888889     0.883566666667     0          
O        O      0.358544444444     0.512622222222     0.371166666667     0          
O        O      0.345677777778     0.450755555556     0.418866666667     0          
O        O      0.410244444444     0.487122222222     0.369966666667     0          
O        O      0.420544444444     0.376955555556     0.436466666667     0          
O        O      0.365611111111     0.397922222222     0.443666666667     0          
T        Si     0.363577777778     0.473755555556     0.373366666667     0          
T        Si     0.412411111111     0.412588888889     0.449766666667     0          
O        O      0.487377777778     0.512588888889     0.371166666667     0          
O        O      0.549244444444     0.561588888889     0.418866666667     0          
O        O      0.512877777778     0.589788888889     0.369966666667     0          
O        O      0.575144444444     0.666655555556     0.499966666667     0          
O        O      0.623044444444     0.376922222222     0.436466666667     0          
O        O      0.602077777778     0.634355555556     0.443666666667     0          
T        Si     0.526244444444     0.556488888889     0.373366666667     0          
T        Si     0.587411111111     0.666488888889     0.449766666667     0          
O        O      0.487411111111     0.641455555556     0.371166666667     0          
O        O      0.438411111111     0.654322222222     0.418866666667     0          
O        O      0.410211111111     0.589755555556     0.369966666667     0          
O        O      0.623077777778     0.579455555556     0.436466666667     0          
O        O      0.365644444444     0.634388888889     0.443666666667     0          
T        Si     0.443511111111     0.636422222222     0.373366666667     0          
T        Si     0.333511111111     0.587588888889     0.449766666667     0          
O        O      0.549244444444     0.654322222222     0.418866666667     0          
T        Si     0.526244444444     0.636422222222     0.373366666667     0          
T        Si     0.587411111111     0.587588888889     0.449766666667     0          
O        O      0.345677777778     0.561588888889     0.418866666667     0          
O        O      0.424844444444     0.666655555556     0.499966666667     0          
T        Si     0.363577777778     0.556488888889     0.373366666667     0          
T        Si     0.412411111111     0.666488888889     0.449766666667     0          
O        O      0.438411111111     0.450755555556     0.418866666667     0          
T        Si     0.443511111111     0.473755555556     0.373366666667     0          
T        Si     0.333511111111     0.412588888889     0.449766666667     0          
O        O      0.549344444444     0.666655555556     0.999966666667     0          
O        O      0.543211111111     0.660355555556     0.914466666667     0          
T        Si     0.525311111111     0.637355555556     0.959966666667     0          
T        Si     0.476477777778     0.365188888889     0.883566666667     0          
O        O      0.339644444444     0.549522222222     0.914466666667     0          
T        Si     0.362644444444     0.554622222222     0.959966666667     0          
T        Si     0.634811111111     0.444622222222     0.883566666667     0          
O        O      0.450477777778     0.456788888889     0.914466666667     0          
T        Si     0.445377777778     0.474688888889     0.959966666667     0          
T        Si     0.555377777778     0.523522222222     0.883566666667     0          
O        O      0.555566666667     0.895100000000     0.333300000000     0          
O        O      0.623733333333     0.914100000000     0.295500000000     0          
O        O      0.561866666667     0.901233333333     0.247800000000     0          
O        O      0.598233333333     0.965800000000     0.296700000000     0          
O        O      0.535966666667     0.980400000000     0.166700000000     0          
O        O      0.488066666667     0.976100000000     0.230200000000     0          
O        O      0.509033333333     0.921166666667     0.223000000000     0          
T        Si     0.584866666667     0.919133333333     0.293300000000     0          
T        Si     0.523700000000     0.967966666667     0.216900000000     0          
O        O      0.438233333333     0.993800000000     0.333300000000     0          
O        O      0.419233333333     0.709633333333     0.295500000000     0          
O        O      0.432100000000     0.993966666667     0.247800000000     0          
O        O      0.367533333333     0.965766666667     0.296700000000     0          
O        O      0.352933333333     0.888900000000     0.166700000000     0          
O        O      0.357233333333     0.845300000000     0.230200000000     0          
O        O      0.412166666667     0.921200000000     0.223000000000     0          
T        Si     0.414200000000     0.999066666667     0.293300000000     0          
T        Si     0.365366666667     0.889066666667     0.216900000000     0          
O        O      0.339533333333     0.777766666667     0.333300000000     0          
O        O      0.623700000000     0.709600000000     0.295500000000     0          
O        O      0.339366666667     0.771466666667     0.247800000000     0          
O        O      0.367566666667     0.735100000000     0.296700000000     0          
O        O      0.444433333333     0.797366666667     0.166700000000     0          
O        O      0.488033333333     0.845266666667     0.230200000000     0          
O        O      0.412133333333     0.824300000000     0.223000000000     0          
T        Si     0.334266666667     0.748466666667     0.293300000000     0          
T        Si     0.444266666667     0.809633333333     0.216900000000     0          
O        O      0.561766666667     0.888900000000     0.666700000000     0          
O        O      0.580766666667     0.957066666667     0.704500000000     0          
O        O      0.567900000000     0.895200000000     0.752200000000     0          
O        O      0.632466666667     0.931566666667     0.703300000000     0          
O        O      0.647066666667     0.869300000000     0.833300000000     0          
O        O      0.642766666667     0.821400000000     0.769800000000     0          
O        O      0.587833333333     0.842366666667     0.777000000000     0          
T        Si     0.585800000000     0.918200000000     0.706700000000     0          
T        Si     0.634633333333     0.857033333333     0.783100000000     0          
O        O      0.444433333333     0.672866666667     0.666700000000     0          
O        O      0.376266666667     0.957033333333     0.704500000000     0          
O        O      0.438133333333     0.672700000000     0.752200000000     0          
O        O      0.401766666667     0.700900000000     0.703300000000     0          
O        O      0.464033333333     0.777766666667     0.833300000000     0          
O        O      0.511933333333     0.821366666667     0.769800000000     0          
O        O      0.490966666667     0.745466666667     0.777000000000     0          
T        Si     0.415133333333     0.667600000000     0.706700000000     0          
T        Si     0.476300000000     0.777600000000     0.783100000000     0          
O        O      0.660466666667     0.771566666667     0.666700000000     0          
O        O      0.376300000000     0.752566666667     0.704500000000     0          
O        O      0.660633333333     0.765433333333     0.752200000000     0          
O        O      0.632433333333     0.700866666667     0.703300000000     0          
O        O      0.555566666667     0.686266666667     0.833300000000     0          
O        O      0.511966666667     0.690566666667     0.769800000000     0          
O        O      0.587866666667     0.745500000000     0.777000000000     0          
T        Si     0.665733333333     0.747533333333     0.706700000000     0          
T        Si     0.555733333333     0.698700000000     0.783100000000     0          
O        O      0.444433333333     0.771566666667     0.666700000000     0          
O        O      0.438133333333     0.765433333333     0.752200000000     0          
O        O      0.464033333333     0.686266666667     0.833300000000     0          
T        Si     0.415133333333     0.747533333333     0.706700000000     0          
T        Si     0.476300000000     0.698700000000     0.783100000000     0          
O        O      0.561766666667     0.672866666667     0.666700000000     0          
O        O      0.567900000000     0.672700000000     0.752200000000     0          
O        O      0.647066666667     0.777766666667     0.833300000000     0          
T        Si     0.585800000000     0.667600000000     0.706700000000     0          
T        Si     0.634633333333     0.777600000000     0.783100000000     0          
O        O      0.660466666667     0.888900000000     0.666700000000     0          
O        O      0.660633333333     0.895200000000     0.752200000000     0          
O        O      0.555566666667     0.869300000000     0.833300000000     0          
T        Si     0.665733333333     0.918200000000     0.706700000000     0          
T        Si     0.555733333333     0.857033333333     0.783100000000     0          
O        O      0.438233333333     0.777766666667     0.333300000000     0          
O        O      0.432100000000     0.771466666667     0.247800000000     0          
O        O      0.352933333333     0.797366666667     0.166700000000     0          
T        Si     0.414200000000     0.748466666667     0.293300000000     0          
T        Si     0.365366666667     0.809633333333     0.216900000000     0          
O        O      0.555566666667     0.993800000000     0.333300000000     0          
O        O      0.561866666667     0.993966666667     0.247800000000     0          
O        O      0.535966666667     0.888900000000     0.166700000000     0          
T        Si     0.584866666667     0.999066666667     0.293300000000     0          
T        Si     0.523700000000     0.889066666667     0.216900000000     0          
O        O      0.339533333333     0.895100000000     0.333300000000     0          
O        O      0.339366666667     0.901233333333     0.247800000000     0          
O        O      0.444433333333     0.980400000000     0.166700000000     0          
T        Si     0.334266666667     0.919133333333     0.293300000000     0          
T        Si     0.444266666667     0.967966666667     0.216900000000     0          
O        O      0.512622222222     0.691877777778     0.628833333333     0          
O        O      0.450755555556     0.679011111111     0.581133333333     0          
O        O      0.487122222222     0.743577777778     0.630033333333     0          
O        O      0.424855555556     0.758177777778     0.500033333333     0          
O        O      0.376955555556     0.753877777778     0.563533333333     0          
O        O      0.397922222222     0.698944444444     0.556333333333     0          
T        Si     0.473755555556     0.696911111111     0.626633333333     0          
T        Si     0.412588888889     0.745744444444     0.550233333333     0          
O        O      0.641455555556     0.820744444444     0.628833333333     0          
O        O      0.654322222222     0.771744444444     0.581133333333     0          
O        O      0.589755555556     0.743544444444     0.630033333333     0          
O        O      0.579455555556     0.956411111111     0.563533333333     0          
O        O      0.634388888889     0.698977777778     0.556333333333     0          
T        Si     0.636422222222     0.776844444444     0.626633333333     0          
T        Si     0.587588888889     0.666844444444     0.550233333333     0          
O        O      0.512588888889     0.820711111111     0.628833333333     0          
O        O      0.561588888889     0.882577777778     0.581133333333     0          
O        O      0.589788888889     0.846211111111     0.630033333333     0          
O        O      0.666655555556     0.908477777778     0.500033333333     0          
O        O      0.376922222222     0.956377777778     0.563533333333     0          
O        O      0.634355555556     0.935411111111     0.556333333333     0          
T        Si     0.556488888889     0.859577777778     0.626633333333     0          
T        Si     0.666488888889     0.920744444444     0.550233333333     0          
O        O      0.469655555556     0.734844444444     0.037833333333     0          
O        O      0.456788888889     0.672977777778     0.085533333333     0          
O        O      0.521355555556     0.709344444444     0.036633333333     0          
O        O      0.531655555556     0.932511111111     0.103133333333     0          
O        O      0.476722222222     0.953477777778     0.110333333333     0          
T        Si     0.474688888889     0.695977777778     0.040033333333     0          
T        Si     0.523522222222     0.968144444444     0.116433333333     0          
O        O      0.666655555556     0.783977777778     0.000033333333     0          
O        O      0.598488888889     0.734811111111     0.037833333333     0          
O        O      0.660355555556     0.783811111111     0.085533333333     0          
O        O      0.623988888889     0.812011111111     0.036633333333     0          
O        O      0.400822222222     0.932477777778     0.103133333333     0          
O        O      0.379855555556     0.856577777778     0.110333333333     0          
T        Si     0.637355555556     0.778711111111     0.040033333333     0          
T        Si     0.365188888889     0.888711111111     0.116433333333     0          
O        O      0.549355555556     0.882677777778     0.000033333333     0          
O        O      0.598522222222     0.863677777778     0.037833333333     0          
O        O      0.549522222222     0.876544444444     0.085533333333     0          
O        O      0.521322222222     0.811977777778     0.036633333333     0          
O        O      0.400855555556     0.801677777778     0.103133333333     0          
O        O      0.476755555556     0.856611111111     0.110333333333     0          
T        Si     0.554622222222     0.858644444444     0.040033333333     0          
T        Si     0.444622222222     0.809811111111     0.116433333333     0          
O        O      0.666655555556     0.882677777778     0.000033333333     0          
O        O      0.660355555556     0.876544444444     0.085533333333     0          
T        Si     0.637355555556     0.858644444444     0.040033333333     0          
T        Si     0.365188888889     0.809811111111     0.116433333333     0          
O        O      0.450655555556     0.783977777778     0.000033333333     0          
O        O      0.456788888889     0.783811111111     0.085533333333     0          
T        Si     0.474688888889     0.778711111111     0.040033333333     0          
T        Si     0.523522222222     0.888711111111     0.116433333333     0          
O        O      0.549522222222     0.672977777778     0.085533333333     0          
T        Si     0.554622222222     0.695977777778     0.040033333333     0          
T        Si     0.444622222222     0.968144444444     0.116433333333     0          
O        O      0.654322222222     0.882577777778     0.581133333333     0          
O        O      0.575155555556     0.908477777778     0.500033333333     0          
T        Si     0.636422222222     0.859577777778     0.626633333333     0          
T        Si     0.587588888889     0.920744444444     0.550233333333     0          
O        O      0.450755555556     0.771744444444     0.581133333333     0          
T        Si     0.473755555556     0.776844444444     0.626633333333     0          
T        Si     0.412588888889     0.666844444444     0.550233333333     0          
O        O      0.561588888889     0.679011111111     0.581133333333     0          
O        O      0.666655555556     0.758177777778     0.500033333333     0          
T        Si     0.556488888889     0.696911111111     0.626633333333     0          
T        Si     0.666488888889     0.745744444444     0.550233333333     0          
O        O      0.401511111111     0.802988888889     0.962166666667     0          
O        O      0.339644444444     0.790122222222     0.914466666667     0          
O        O      0.376011111111     0.854688888889     0.963366666667     0          
O        O      0.599177777778     0.864988888889     0.896866666667     0          
O        O      0.620144444444     0.810055555556     0.889666666667     0          
T        Si     0.362644444444     0.808022222222     0.959966666667     0          
T        Si     0.634811111111     0.856855555556     0.883566666667     0          
O        O      0.530344444444     0.931855555556     0.962166666667     0          
O        O      0.543211111111     0.882855555556     0.914466666667     0          
O        O      0.478644444444     0.854655555556     0.963366666667     0          
O        O      0.468344444444     0.734188888889     0.896866666667     0          
O        O      0.523277777778     0.810088888889     0.889666666667     0          
T        Si     0.525311111111     0.887955555556     0.959966666667     0          
T        Si     0.476477777778     0.777955555556     0.883566666667     0          
O        O      0.401477777778     0.931822222222     0.962166666667     0          
O        O      0.450477777778     0.993688888889     0.914466666667     0          
O        O      0.478677777778     0.957322222222     0.963366666667     0          
O        O      0.599144444444     0.734155555556     0.896866666667     0          
O        O      0.523244444444     0.713188888889     0.889666666667     0          
T        Si     0.445377777778     0.970688888889     0.959966666667     0          
T        Si     0.555377777778     0.698522222222     0.883566666667     0          
O        O      0.358544444444     0.845955555556     0.371166666667     0          
O        O      0.345677777778     0.784088888889     0.418866666667     0          
O        O      0.410244444444     0.820455555556     0.369966666667     0          
O        O      0.420544444444     0.710288888889     0.436466666667     0          
O        O      0.365611111111     0.731255555556     0.443666666667     0          
T        Si     0.363577777778     0.807088888889     0.373366666667     0          
T        Si     0.412411111111     0.745922222222     0.449766666667     0          
O        O      0.487377777778     0.845922222222     0.371166666667     0          
O        O      0.549244444444     0.894922222222     0.418866666667     0          
O        O      0.512877777778     0.923122222222     0.369966666667     0          
O        O      0.623044444444     0.710255555556     0.436466666667     0          
O        O      0.602077777778     0.967688888889     0.443666666667     0          
T        Si     0.526244444444     0.889822222222     0.373366666667     0          
T        Si     0.587411111111     0.999822222222     0.449766666667     0          
O        O      0.487411111111     0.974788888889     0.371166666667     0          
O        O      0.438411111111     0.987655555556     0.418866666667     0          
O        O      0.410211111111     0.923088888889     0.369966666667     0          
O        O      0.623077777778     0.912788888889     0.436466666667     0          
O        O      0.365644444444     0.967722222222     0.443666666667     0          
T        Si     0.443511111111     0.969755555556     0.373366666667     0          
T        Si     0.333511111111     0.920922222222     0.449766666667     0          
O        O      0.549244444444     0.987655555556     0.418866666667     0          
T        Si     0.526244444444     0.969755555556     0.373366666667     0          
T        Si     0.587411111111     0.920922222222     0.449766666667     0          
O        O      0.345677777778     0.894922222222     0.418866666667     0          
T        Si     0.363577777778     0.889822222222     0.373366666667     0          
T        Si     0.412411111111     0.999822222222     0.449766666667     0          
O        O      0.438411111111     0.784088888889     0.418866666667     0          
T        Si     0.443511111111     0.807088888889     0.373366666667     0          
T        Si     0.333511111111     0.745922222222     0.449766666667     0          
O        O      0.543211111111     0.993688888889     0.914466666667     0          
T        Si     0.525311111111     0.970688888889     0.959966666667     0          
T        Si     0.476477777778     0.698522222222     0.883566666667     0          
O        O      0.339644444444     0.882855555556     0.914466666667     0          
T        Si     0.362644444444     0.887955555556     0.959966666667     0          
T        Si     0.634811111111     0.777955555556     0.883566666667     0          
O        O      0.450477777778     0.790122222222     0.914466666667     0          
T        Si     0.445377777778     0.808022222222     0.959966666667     0          
T        Si     0.555377777778     0.856855555556     0.883566666667     0          
O        O      0.888900000000     0.228433333333     0.333300000000     0          
O        O      0.957066666667     0.247433333333     0.295500000000     0          
O        O      0.895200000000     0.234566666667     0.247800000000     0          
O        O      0.931566666667     0.299133333333     0.296700000000     0          
O        O      0.869300000000     0.313733333333     0.166700000000     0          
O        O      0.821400000000     0.309433333333     0.230200000000     0          
O        O      0.842366666667     0.254500000000     0.223000000000     0          
T        Si     0.918200000000     0.252466666667     0.293300000000     0          
T        Si     0.857033333333     0.301300000000     0.216900000000     0          
O        O      0.771566666667     0.327133333333     0.333300000000     0          
O        O      0.752566666667     0.042966666667     0.295500000000     0          
O        O      0.765433333333     0.327300000000     0.247800000000     0          
O        O      0.700866666667     0.299100000000     0.296700000000     0          
O        O      0.686266666667     0.222233333333     0.166700000000     0          
O        O      0.690566666667     0.178633333333     0.230200000000     0          
O        O      0.745500000000     0.254533333333     0.223000000000     0          
T        Si     0.747533333333     0.332400000000     0.293300000000     0          
T        Si     0.698700000000     0.222400000000     0.216900000000     0          
O        O      0.672866666667     0.111100000000     0.333300000000     0          
O        O      0.957033333333     0.042933333333     0.295500000000     0          
O        O      0.672700000000     0.104800000000     0.247800000000     0          
O        O      0.700900000000     0.068433333333     0.296700000000     0          
O        O      0.777766666667     0.130700000000     0.166700000000     0          
O        O      0.821366666667     0.178600000000     0.230200000000     0          
O        O      0.745466666667     0.157633333333     0.223000000000     0          
T        Si     0.667600000000     0.081800000000     0.293300000000     0          
T        Si     0.777600000000     0.142966666667     0.216900000000     0          
O        O      0.895100000000     0.222233333333     0.666700000000     0          
O        O      0.914100000000     0.290400000000     0.704500000000     0          
O        O      0.901233333333     0.228533333333     0.752200000000     0          
O        O      0.965800000000     0.264900000000     0.703300000000     0          
O        O      0.980400000000     0.202633333333     0.833300000000     0          
O        O      0.976100000000     0.154733333333     0.769800000000     0          
O        O      0.921166666667     0.175700000000     0.777000000000     0          
T        Si     0.919133333333     0.251533333333     0.706700000000     0          
T        Si     0.967966666667     0.190366666667     0.783100000000     0          
O        O      0.777766666667     0.006200000000     0.666700000000     0          
O        O      0.709600000000     0.290366666667     0.704500000000     0          
O        O      0.771466666667     0.006033333333     0.752200000000     0          
O        O      0.735100000000     0.034233333333     0.703300000000     0          
O        O      0.797366666667     0.111100000000     0.833300000000     0          
O        O      0.845266666667     0.154700000000     0.769800000000     0          
O        O      0.824300000000     0.078800000000     0.777000000000     0          
T        Si     0.748466666667     0.000933333333     0.706700000000     0          
T        Si     0.809633333333     0.110933333333     0.783100000000     0          
O        O      0.993800000000     0.104900000000     0.666700000000     0          
O        O      0.709633333333     0.085900000000     0.704500000000     0          
O        O      0.993966666667     0.098766666667     0.752200000000     0          
O        O      0.965766666667     0.034200000000     0.703300000000     0          
O        O      0.888900000000     0.019600000000     0.833300000000     0          
O        O      0.845300000000     0.023900000000     0.769800000000     0          
O        O      0.921200000000     0.078833333333     0.777000000000     0          
T        Si     0.999066666667     0.080866666667     0.706700000000     0          
T        Si     0.889066666667     0.032033333333     0.783100000000     0          
O        O      0.777766666667     0.104900000000     0.666700000000     0          
O        O      0.771466666667     0.098766666667     0.752200000000     0          
O        O      0.797366666667     0.019600000000     0.833300000000     0          
T        Si     0.748466666667     0.080866666667     0.706700000000     0          
T        Si     0.809633333333     0.032033333333     0.783100000000     0          
O        O      0.895100000000     0.006200000000     0.666700000000     0          
O        O      0.901233333333     0.006033333333     0.752200000000     0          
O        O      0.980400000000     0.111100000000     0.833300000000     0          
T        Si     0.919133333333     0.000933333333     0.706700000000     0          
T        Si     0.967966666667     0.110933333333     0.783100000000     0          
O        O      0.993800000000     0.222233333333     0.666700000000     0          
O        O      0.993966666667     0.228533333333     0.752200000000     0          
O        O      0.888900000000     0.202633333333     0.833300000000     0          
T        Si     0.999066666667     0.251533333333     0.706700000000     0          
T        Si     0.889066666667     0.190366666667     0.783100000000     0          
O        O      0.771566666667     0.111100000000     0.333300000000     0          
O        O      0.765433333333     0.104800000000     0.247800000000     0          
O        O      0.686266666667     0.130700000000     0.166700000000     0          
T        Si     0.747533333333     0.081800000000     0.293300000000     0          
T        Si     0.698700000000     0.142966666667     0.216900000000     0          
O        O      0.888900000000     0.327133333333     0.333300000000     0          
O        O      0.895200000000     0.327300000000     0.247800000000     0          
O        O      0.869300000000     0.222233333333     0.166700000000     0          
T        Si     0.918200000000     0.332400000000     0.293300000000     0          
T        Si     0.857033333333     0.222400000000     0.216900000000     0          
O        O      0.672866666667     0.228433333333     0.333300000000     0          
O        O      0.672700000000     0.234566666667     0.247800000000     0          
O        O      0.777766666667     0.313733333333     0.166700000000     0          
T        Si     0.667600000000     0.252466666667     0.293300000000     0          
T        Si     0.777600000000     0.301300000000     0.216900000000     0          
O        O      0.845955555556     0.025211111111     0.628833333333     0          
O        O      0.784088888889     0.012344444444     0.581133333333     0          
O        O      0.820455555556     0.076911111111     0.630033333333     0          
O        O      0.758188888889     0.091511111111     0.500033333333     0          
O        O      0.710288888889     0.087211111111     0.563533333333     0          
O        O      0.731255555556     0.032277777778     0.556333333333     0          
T        Si     0.807088888889     0.030244444444     0.626633333333     0          
T        Si     0.745922222222     0.079077777778     0.550233333333     0          
O        O      0.974788888889     0.154077777778     0.628833333333     0          
O        O      0.987655555556     0.105077777778     0.581133333333     0          
O        O      0.923088888889     0.076877777778     0.630033333333     0          
O        O      0.908488888889     0.000011111111     0.500033333333     0          
O        O      0.912788888889     0.289744444444     0.563533333333     0          
O        O      0.967722222222     0.032311111111     0.556333333333     0          
T        Si     0.969755555556     0.110177777778     0.626633333333     0          
T        Si     0.920922222222     0.000177777778     0.550233333333     0          
O        O      0.845922222222     0.154044444444     0.628833333333     0          
O        O      0.894922222222     0.215911111111     0.581133333333     0          
O        O      0.923122222222     0.179544444444     0.630033333333     0          
O        O      0.710255555556     0.289711111111     0.563533333333     0          
O        O      0.967688888889     0.268744444444     0.556333333333     0          
T        Si     0.889822222222     0.192911111111     0.626633333333     0          
T        Si     0.999822222222     0.254077777778     0.550233333333     0          
O        O      0.783988888889     0.000011111111     0.000033333333     0          
O        O      0.802988888889     0.068177777778     0.037833333333     0          
O        O      0.790122222222     0.006311111111     0.085533333333     0          
O        O      0.854688888889     0.042677777778     0.036633333333     0          
O        O      0.864988888889     0.265844444444     0.103133333333     0          
O        O      0.810055555556     0.286811111111     0.110333333333     0          
T        Si     0.808022222222     0.029311111111     0.040033333333     0          
T        Si     0.856855555556     0.301477777778     0.116433333333     0          
O        O      0.931822222222     0.068144444444     0.037833333333     0          
O        O      0.993688888889     0.117144444444     0.085533333333     0          
O        O      0.957322222222     0.145344444444     0.036633333333     0          
O        O      0.734155555556     0.265811111111     0.103133333333     0          
O        O      0.713188888889     0.189911111111     0.110333333333     0          
T        Si     0.970688888889     0.112044444444     0.040033333333     0          
T        Si     0.698522222222     0.222044444444     0.116433333333     0          
O        O      0.882688888889     0.216011111111     0.000033333333     0          
O        O      0.931855555556     0.197011111111     0.037833333333     0          
O        O      0.882855555556     0.209877777778     0.085533333333     0          
O        O      0.854655555556     0.145311111111     0.036633333333     0          
O        O      0.734188888889     0.135011111111     0.103133333333     0          
O        O      0.810088888889     0.189944444444     0.110333333333     0          
T        Si     0.887955555556     0.191977777778     0.040033333333     0          
T        Si     0.777955555556     0.143144444444     0.116433333333     0          
O        O      0.993688888889     0.209877777778     0.085533333333     0          
T        Si     0.970688888889     0.191977777778     0.040033333333     0          
T        Si     0.698522222222     0.143144444444     0.116433333333     0          
O        O      0.783988888889     0.117311111111     0.000033333333     0          
O        O      0.790122222222     0.117144444444     0.085533333333     0          
T        Si     0.808022222222     0.112044444444     0.040033333333     0          
T        Si     0.856855555556     0.222044444444     0.116433333333     0          
O        O      0.882688888889     0.000011111111     0.000033333333     0          
O        O      0.882855555556     0.006311111111     0.085533333333     0          
T        Si     0.887955555556     0.029311111111     0.040033333333     0          
T        Si     0.777955555556     0.301477777778     0.116433333333     0          
O        O      0.987655555556     0.215911111111     0.581133333333     0          
O        O      0.908488888889     0.241811111111     0.500033333333     0          
T        Si     0.969755555556     0.192911111111     0.626633333333     0          
T        Si     0.920922222222     0.254077777778     0.550233333333     0          
O        O      0.784088888889     0.105077777778     0.581133333333     0          
O        O      0.758188888889     0.000011111111     0.500033333333     0          
T        Si     0.807088888889     0.110177777778     0.626633333333     0          
T        Si     0.745922222222     0.000177777778     0.550233333333     0          
O        O      0.894922222222     0.012344444444     0.581133333333     0          
T        Si     0.889822222222     0.030244444444     0.626633333333     0          
T        Si     0.999822222222     0.079077777778     0.550233333333     0          
O        O      0.734844444444     0.136322222222     0.962166666667     0          
O        O      0.672977777778     0.123455555556     0.914466666667     0          
O        O      0.709344444444     0.188022222222     0.963366666667     0          
O        O      0.932511111111     0.198322222222     0.896866666667     0          
O        O      0.953477777778     0.143388888889     0.889666666667     0          
T        Si     0.695977777778     0.141355555556     0.959966666667     0          
T        Si     0.968144444444     0.190188888889     0.883566666667     0          
O        O      0.863677777778     0.265188888889     0.962166666667     0          
O        O      0.876544444444     0.216188888889     0.914466666667     0          
O        O      0.811977777778     0.187988888889     0.963366666667     0          
O        O      0.801677777778     0.067522222222     0.896866666667     0          
O        O      0.856611111111     0.143422222222     0.889666666667     0          
T        Si     0.858644444444     0.221288888889     0.959966666667     0          
T        Si     0.809811111111     0.111288888889     0.883566666667     0          
O        O      0.783977777778     0.333322222222     0.999966666667     0          
O        O      0.734811111111     0.265155555556     0.962166666667     0          
O        O      0.783811111111     0.327022222222     0.914466666667     0          
O        O      0.812011111111     0.290655555556     0.963366666667     0          
O        O      0.932477777778     0.067488888889     0.896866666667     0          
O        O      0.856577777778     0.046522222222     0.889666666667     0          
T        Si     0.778711111111     0.304022222222     0.959966666667     0          
T        Si     0.888711111111     0.031855555556     0.883566666667     0          
O        O      0.691877777778     0.179288888889     0.371166666667     0          
O        O      0.679011111111     0.117422222222     0.418866666667     0          
O        O      0.743577777778     0.153788888889     0.369966666667     0          
O        O      0.753877777778     0.043622222222     0.436466666667     0          
O        O      0.698944444444     0.064588888889     0.443666666667     0          
T        Si     0.696911111111     0.140422222222     0.373366666667     0          
T        Si     0.745744444444     0.079255555556     0.449766666667     0          
O        O      0.820711111111     0.179255555556     0.371166666667     0          
O        O      0.882577777778     0.228255555556     0.418866666667     0          
O        O      0.846211111111     0.256455555556     0.369966666667     0          
O        O      0.908477777778     0.333322222222     0.499966666667     0          
O        O      0.956377777778     0.043588888889     0.436466666667     0          
O        O      0.935411111111     0.301022222222     0.443666666667     0          
T        Si     0.859577777778     0.223155555556     0.373366666667     0          
T        Si     0.920744444444     0.333155555556     0.449766666667     0          
O        O      0.820744444444     0.308122222222     0.371166666667     0          
O        O      0.771744444444     0.320988888889     0.418866666667     0          
O        O      0.743544444444     0.256422222222     0.369966666667     0          
O        O      0.956411111111     0.246122222222     0.436466666667     0          
O        O      0.698977777778     0.301055555556     0.443666666667     0          
T        Si     0.776844444444     0.303088888889     0.373366666667     0          
T        Si     0.666844444444     0.254255555556     0.449766666667     0          
O        O      0.882577777778     0.320988888889     0.418866666667     0          
T        Si     0.859577777778     0.303088888889     0.373366666667     0          
T        Si     0.920744444444     0.254255555556     0.449766666667     0          
O        O      0.679011111111     0.228255555556     0.418866666667     0          
O        O      0.758177777778     0.333322222222     0.499966666667     0          
T        Si     0.696911111111     0.223155555556     0.373366666667     0          
T        Si     0.745744444444     0.333155555556     0.449766666667     0          
O        O      0.771744444444     0.117422222222     0.418866666667     0          
T        Si     0.776844444444     0.140422222222     0.373366666667     0          
T        Si     0.666844444444     0.079255555556     0.449766666667     0          
O        O      0.882677777778     0.333322222222     0.999966666667     0          
O        O      0.876544444444     0.327022222222     0.914466666667     0          
T        Si     0.858644444444     0.304022222222     0.959966666667     0          
T        Si     0.809811111111     0.031855555556     0.883566666667     0          
O        O      0.672977777778     0.216188888889     0.914466666667     0          
T        Si     0.695977777778     0.221288888889     0.959966666667     0          
T        Si     0.968144444444     0.111288888889     0.883566666667     0          
O        O      0.783811111111     0.123455555556     0.914466666667     0          
T        Si     0.778711111111     0.141355555556     0.959966666667     0          
T        Si     0.888711111111     0.190188888889     0.883566666667     0          
O        O      0.888900000000     0.561766666667     0.333300000000     0          
O        O      0.957066666667     0.580766666667     0.295500000000     0          
O        O      0.895200000000     0.567900000000     0.247800000000     0          
O        O      0.931566666667     0.632466666667     0.296700000000     0          
O        O      0.869300000000     0.647066666667     0.166700000000     0          
O        O      0.821400000000     0.642766666667     0.230200000000     0          
O        O      0.842366666667     0.587833333333     0.223000000000     0          
T        Si     0.918200000000     0.585800000000     0.293300000000     0          
T        Si     0.857033333333     0.634633333333     0.216900000000     0          
O        O      0.771566666667     0.660466666667     0.333300000000     0          
O        O      0.752566666667     0.376300000000     0.295500000000     0          
O        O      0.765433333333     0.660633333333     0.247800000000     0          
O        O      0.700866666667     0.632433333333     0.296700000000     0          
O        O      0.686266666667     0.555566666667     0.166700000000     0          
O        O      0.690566666667     0.511966666667     0.230200000000     0          
O        O      0.745500000000     0.587866666667     0.223000000000     0          
T        Si     0.747533333333     0.665733333333     0.293300000000     0          
T        Si     0.698700000000     0.555733333333     0.216900000000     0          
O        O      0.672866666667     0.444433333333     0.333300000000     0          
O        O      0.957033333333     0.376266666667     0.295500000000     0          
O        O      0.672700000000     0.438133333333     0.247800000000     0          
O        O      0.700900000000     0.401766666667     0.296700000000     0          
O        O      0.777766666667     0.464033333333     0.166700000000     0          
O        O      0.821366666667     0.511933333333     0.230200000000     0          
O        O      0.745466666667     0.490966666667     0.223000000000     0          
T        Si     0.667600000000     0.415133333333     0.293300000000     0          
T        Si     0.777600000000     0.476300000000     0.216900000000     0          
O        O      0.895100000000     0.555566666667     0.666700000000     0          
O        O      0.914100000000     0.623733333333     0.704500000000     0          
O        O      0.901233333333     0.561866666667     0.752200000000     0          
O        O      0.965800000000     0.598233333333     0.703300000000     0          
O        O      0.980400000000     0.535966666667     0.833300000000     0          
O        O      0.976100000000     0.488066666667     0.769800000000     0          
O        O      0.921166666667     0.509033333333     0.777000000000     0          
T        Si     0.919133333333     0.584866666667     0.706700000000     0          
T        Si     0.967966666667     0.523700000000     0.783100000000     0          
O        O      0.777766666667     0.339533333333     0.666700000000     0          
O        O      0.709600000000     0.623700000000     0.704500000000     0          
O        O      0.771466666667     0.339366666667     0.752200000000     0          
O        O      0.735100000000     0.367566666667     0.703300000000     0          
O        O      0.797366666667     0.444433333333     0.833300000000     0          
O        O      0.845266666667     0.488033333333     0.769800000000     0          
O        O      0.824300000000     0.412133333333     0.777000000000     0          
T        Si     0.748466666667     0.334266666667     0.706700000000     0          
T        Si     0.809633333333     0.444266666667     0.783100000000     0          
O        O      0.993800000000     0.438233333333     0.666700000000     0          
O        O      0.709633333333     0.419233333333     0.704500000000     0          
O        O      0.993966666667     0.432100000000     0.752200000000     0          
O        O      0.965766666667     0.367533333333     0.703300000000     0          
O        O      0.888900000000     0.352933333333     0.833300000000     0          
O        O      0.845300000000     0.357233333333     0.769800000000     0          
O        O      0.921200000000     0.412166666667     0.777000000000     0          
T        Si     0.999066666667     0.414200000000     0.706700000000     0          
T        Si     0.889066666667     0.365366666667     0.783100000000     0          
O        O      0.777766666667     0.438233333333     0.666700000000     0          
O        O      0.771466666667     0.432100000000     0.752200000000     0          
O        O      0.797366666667     0.352933333333     0.833300000000     0          
T        Si     0.748466666667     0.414200000000     0.706700000000     0          
T        Si     0.809633333333     0.365366666667     0.783100000000     0          
O        O      0.895100000000     0.339533333333     0.666700000000     0          
O        O      0.901233333333     0.339366666667     0.752200000000     0          
O        O      0.980400000000     0.444433333333     0.833300000000     0          
T        Si     0.919133333333     0.334266666667     0.706700000000     0          
T        Si     0.967966666667     0.444266666667     0.783100000000     0          
O        O      0.993800000000     0.555566666667     0.666700000000     0          
O        O      0.993966666667     0.561866666667     0.752200000000     0          
O        O      0.888900000000     0.535966666667     0.833300000000     0          
T        Si     0.999066666667     0.584866666667     0.706700000000     0          
T        Si     0.889066666667     0.523700000000     0.783100000000     0          
O        O      0.771566666667     0.444433333333     0.333300000000     0          
O        O      0.765433333333     0.438133333333     0.247800000000     0          
O        O      0.686266666667     0.464033333333     0.166700000000     0          
T        Si     0.747533333333     0.415133333333     0.293300000000     0          
T        Si     0.698700000000     0.476300000000     0.216900000000     0          
O        O      0.888900000000     0.660466666667     0.333300000000     0          
O        O      0.895200000000     0.660633333333     0.247800000000     0          
O        O      0.869300000000     0.555566666667     0.166700000000     0          
T        Si     0.918200000000     0.665733333333     0.293300000000     0          
T        Si     0.857033333333     0.555733333333     0.216900000000     0          
O        O      0.672866666667     0.561766666667     0.333300000000     0          
O        O      0.672700000000     0.567900000000     0.247800000000     0          
O        O      0.777766666667     0.647066666667     0.166700000000     0          
T        Si     0.667600000000     0.585800000000     0.293300000000     0          
T        Si     0.777600000000     0.634633333333     0.216900000000     0          
O        O      0.845955555556     0.358544444444     0.628833333333     0          
O        O      0.784088888889     0.345677777778     0.581133333333     0          
O        O      0.820455555556     0.410244444444     0.630033333333     0          
O        O      0.758188888889     0.424844444444     0.500033333333     0          
O        O      0.710288888889     0.420544444444     0.563533333333     0          
O        O      0.731255555556     0.365611111111     0.556333333333     0          
T        Si     0.807088888889     0.363577777778     0.626633333333     0          
T        Si     0.745922222222     0.412411111111     0.550233333333     0          
O        O      0.974788888889     0.487411111111     0.628833333333     0          
O        O      0.987655555556     0.438411111111     0.581133333333     0          
O        O      0.923088888889     0.410211111111     0.630033333333     0          
O        O      0.912788888889     0.623077777778     0.563533333333     0          
O        O      0.967722222222     0.365644444444     0.556333333333     0          
T        Si     0.969755555556     0.443511111111     0.626633333333     0          
T        Si     0.920922222222     0.333511111111     0.550233333333     0          
O        O      0.845922222222     0.487377777778     0.628833333333     0          
O        O      0.894922222222     0.549244444444     0.581133333333     0          
O        O      0.923122222222     0.512877777778     0.630033333333     0          
O        O      0.710255555556     0.623044444444     0.563533333333     0          
O        O      0.967688888889     0.602077777778     0.556333333333     0          
T        Si     0.889822222222     0.526244444444     0.626633333333     0          
T        Si     0.999822222222     0.587411111111     0.550233333333     0          
O        O      0.802988888889     0.401511111111     0.037833333333     0          
O        O      0.790122222222     0.339644444444     0.085533333333     0          
O        O      0.854688888889     0.376011111111     0.036633333333     0          
O        O      0.864988888889     0.599177777778     0.103133333333     0          
O        O      0.810055555556     0.620144444444     0.110333333333     0          
T        Si     0.808022222222     0.362644444444     0.040033333333     0          
T        Si     0.856855555556     0.634811111111     0.116433333333     0          
O        O      0.931822222222     0.401477777778     0.037833333333     0          
O        O      0.993688888889     0.450477777778     0.085533333333     0          
O        O      0.957322222222     0.478677777778     0.036633333333     0          
O        O      0.734155555556     0.599144444444     0.103133333333     0          
O        O      0.713188888889     0.523244444444     0.110333333333     0          
T        Si     0.970688888889     0.445377777778     0.040033333333     0          
T        Si     0.698522222222     0.555377777778     0.116433333333     0          
O        O      0.882688888889     0.549344444444     0.000033333333     0          
O        O      0.931855555556     0.530344444444     0.037833333333     0          
O        O      0.882855555556     0.543211111111     0.085533333333     0          
O        O      0.854655555556     0.478644444444     0.036633333333     0          
O        O      0.734188888889     0.468344444444     0.103133333333     0          
O        O      0.810088888889     0.523277777778     0.110333333333     0          
T        Si     0.887955555556     0.525311111111     0.040033333333     0          
T        Si     0.777955555556     0.476477777778     0.116433333333     0          
O        O      0.993688888889     0.543211111111     0.085533333333     0          
T        Si     0.970688888889     0.525311111111     0.040033333333     0          
T        Si     0.698522222222     0.476477777778     0.116433333333     0          
O        O      0.783988888889     0.450644444444     0.000033333333     0          
O        O      0.790122222222     0.450477777778     0.085533333333     0          
T        Si     0.808022222222     0.445377777778     0.040033333333     0          
T        Si     0.856855555556     0.555377777778     0.116433333333     0          
O        O      0.882855555556     0.339644444444     0.085533333333     0          
T        Si     0.887955555556     0.362644444444     0.040033333333     0          
T        Si     0.777955555556     0.634811111111     0.116433333333     0          
O        O      0.987655555556     0.549244444444     0.581133333333     0          
O        O      0.908488888889     0.575144444444     0.500033333333     0          
T        Si     0.969755555556     0.526244444444     0.626633333333     0          
T        Si     0.920922222222     0.587411111111     0.550233333333     0          
O        O      0.784088888889     0.438411111111     0.581133333333     0          
T        Si     0.807088888889     0.443511111111     0.626633333333     0          
T        Si     0.745922222222     0.333511111111     0.550233333333     0          
O        O      0.894922222222     0.345677777778     0.581133333333     0          
T        Si     0.889822222222     0.363577777778     0.626633333333     0          
T        Si     0.999822222222     0.412411111111     0.550233333333     0          
O        O      0.734844444444     0.469655555556     0.962166666667     0          
O        O      0.672977777778     0.456788888889     0.914466666667     0          
O        O      0.709344444444     0.521355555556     0.963366666667     0          
O        O      0.932511111111     0.531655555556     0.896866666667     0          
O        O      0.953477777778     0.476722222222     0.889666666667     0          
T        Si     0.695977777778     0.474688888889     0.959966666667     0          
T        Si     0.968144444444     0.523522222222     0.883566666667     0          
O        O      0.863677777778     0.598522222222     0.962166666667     0          
O        O      0.876544444444     0.549522222222     0.914466666667     0          
O        O      0.811977777778     0.521322222222     0.963366666667     0          
O        O      0.801677777778     0.400855555556     0.896866666667     0          
O        O      0.856611111111     0.476755555556     0.889666666667     0          
T        Si     0.858644444444     0.554622222222     0.959966666667     0          
T        Si     0.809811111111     0.444622222222     0.883566666667     0          
O        O      0.783977777778     0.666655555556     0.999966666667     0          
O        O      0.734811111111     0.598488888889     0.962166666667     0          
O        O      0.783811111111     0.660355555556     0.914466666667     0          
O        O      0.812011111111     0.623988888889     0.963366666667     0          
O        O      0.932477777778     0.400822222222     0.896866666667     0          
O        O      0.856577777778     0.379855555556     0.889666666667     0          
T        Si     0.778711111111     0.637355555556     0.959966666667     0          
T        Si     0.888711111111     0.365188888889     0.883566666667     0          
O        O      0.691877777778     0.512622222222     0.371166666667     0          
O        O      0.679011111111     0.450755555556     0.418866666667     0          
O        O      0.743577777778     0.487122222222     0.369966666667     0          
O        O      0.753877777778     0.376955555556     0.436466666667     0          
O        O      0.698944444444     0.397922222222     0.443666666667     0          
T        Si     0.696911111111     0.473755555556     0.373366666667     0          
T        Si     0.745744444444     0.412588888889     0.449766666667     0          
O        O      0.820711111111     0.512588888889     0.371166666667     0          
O        O      0.882577777778     0.561588888889     0.418866666667     0          
O        O      0.846211111111     0.589788888889     0.369966666667     0          
O        O      0.908477777778     0.666655555556     0.499966666667     0          
O        O      0.956377777778     0.376922222222     0.436466666667     0          
O        O      0.935411111111     0.634355555556     0.443666666667     0          
T        Si     0.859577777778     0.556488888889     0.373366666667     0          
T        Si     0.920744444444     0.666488888889     0.449766666667     0          
O        O      0.820744444444     0.641455555556     0.371166666667     0          
O        O      0.771744444444     0.654322222222     0.418866666667     0          
O        O      0.743544444444     0.589755555556     0.369966666667     0          
O        O      0.956411111111     0.579455555556     0.436466666667     0          
O        O      0.698977777778     0.634388888889     0.443666666667     0          
T        Si     0.776844444444     0.636422222222     0.373366666667     0          
T        Si     0.666844444444     0.587588888889     0.449766666667     0          
O        O      0.882577777778     0.654322222222     0.418866666667     0          
T        Si     0.859577777778     0.636422222222     0.373366666667     0          
T        Si     0.920744444444     0.587588888889     0.449766666667     0          
O        O      0.679011111111     0.561588888889     0.418866666667     0          
O        O      0.758177777778     0.666655555556     0.499966666667     0          
T        Si     0.696911111111     0.556488888889     0.373366666667     0          
T        Si     0.745744444444     0.666488888889     0.449766666667     0          
O        O      0.771744444444     0.450755555556     0.418866666667     0          
T        Si     0.776844444444     0.473755555556     0.373366666667     0          
T        Si     0.666844444444     0.412588888889     0.449766666667     0          
O        O      0.882677777778     0.666655555556     0.999966666667     0          
O        O      0.876544444444     0.660355555556     0.914466666667     0          
T        Si     0.858644444444     0.637355555556     0.959966666667     0          
T        Si     0.809811111111     0.365188888889     0.883566666667     0          
O        O      0.672977777778     0.549522222222     0.914466666667     0          
T        Si     0.695977777778     0.554622222222     0.959966666667     0          
T        Si     0.968144444444     0.444622222222     0.883566666667     0          
O        O      0.783811111111     0.456788888889     0.914466666667     0          
T        Si     0.778711111111     0.474688888889     0.959966666667     0          
T        Si     0.888711111111     0.523522222222     0.883566666667     0          
O        O      0.888900000000     0.895100000000     0.333300000000     0          
O        O      0.957066666667     0.914100000000     0.295500000000     0          
O        O      0.895200000000     0.901233333333     0.247800000000     0          
O        O      0.931566666667     0.965800000000     0.296700000000     0          
O        O      0.869300000000     0.980400000000     0.166700000000     0          
O        O      0.821400000000     0.976100000000     0.230200000000     0          
O        O      0.842366666667     0.921166666667     0.223000000000     0          
T        Si     0.918200000000     0.919133333333     0.293300000000     0          
T        Si     0.857033333333     0.967966666667     0.216900000000     0          
O        O      0.771566666667     0.993800000000     0.333300000000     0          
O        O      0.752566666667     0.709633333333     0.295500000000     0          
O        O      0.765433333333     0.993966666667     0.247800000000     0          
O        O      0.700866666667     0.965766666667     0.296700000000     0          
O        O      0.686266666667     0.888900000000     0.166700000000     0          
O        O      0.690566666667     0.845300000000     0.230200000000     0          
O        O      0.745500000000     0.921200000000     0.223000000000     0          
T        Si     0.747533333333     0.999066666667     0.293300000000     0          
T        Si     0.698700000000     0.889066666667     0.216900000000     0          
O        O      0.672866666667     0.777766666667     0.333300000000     0          
O        O      0.957033333333     0.709600000000     0.295500000000     0          
O        O      0.672700000000     0.771466666667     0.247800000000     0          
O        O      0.700900000000     0.735100000000     0.296700000000     0          
O        O      0.777766666667     0.797366666667     0.166700000000     0          
O        O      0.821366666667     0.845266666667     0.230200000000     0          
O        O      0.745466666667     0.824300000000     0.223000000000     0          
T        Si     0.667600000000     0.748466666667     0.293300000000     0          
T        Si     0.777600000000     0.809633333333     0.216900000000     0          
O        O      0.895100000000     0.888900000000     0.666700000000     0          
O        O      0.914100000000     0.957066666667     0.704500000000     0          
O        O      0.901233333333     0.895200000000     0.752200000000     0          
O        O      0.965800000000     0.931566666667     0.703300000000     0          
O        O      0.980400000000     0.869300000000     0.833300000000     0          
O        O      0.976100000000     0.821400000000     0.769800000000     0          
O        O      0.921166666667     0.842366666667     0.777000000000     0          
T        Si     0.919133333333     0.918200000000     0.706700000000     0          
T        Si     0.967966666667     0.857033333333     0.783100000000     0          
O        O      0.777766666667     0.672866666667     0.666700000000     0          
O        O      0.709600000000     0.957033333333     0.704500000000     0          
O        O      0.771466666667     0.672700000000     0.752200000000     0          
O        O      0.735100000000     0.700900000000     0.703300000000     0          
O        O      0.797366666667     0.777766666667     0.833300000000     0          
O        O      0.845266666667     0.821366666667     0.769800000000     0          
O        O      0.824300000000     0.745466666667     0.777000000000     0          
T        Si     0.748466666667     0.667600000000     0.706700000000     0          
T        Si     0.809633333333     0.777600000000     0.783100000000     0          
O        O      0.993800000000     0.771566666667     0.666700000000     0          
O        O      0.709633333333     0.752566666667     0.704500000000     0          
O        O      0.993966666667     0.765433333333     0.752200000000     0          
O        O      0.965766666667     0.700866666667     0.703300000000     0          
O        O      0.888900000000     0.686266666667     0.833300000000     0          
O        O      0.845300000000     0.690566666667     0.769800000000     0          
O        O      0.921200000000     0.745500000000     0.777000000000     0          
T        Si     0.999066666667     0.747533333333     0.706700000000     0          
T        Si     0.889066666667     0.698700000000     0.783100000000     0          
O        O      0.777766666667     0.771566666667     0.666700000000     0          
O        O      0.771466666667     0.765433333333     0.752200000000     0          
O        O      0.797366666667     0.686266666667     0.833300000000     0          
T        Si     0.748466666667     0.747533333333     0.706700000000     0          
T        Si     0.809633333333     0.698700000000     0.783100000000     0          
O        O      0.895100000000     0.672866666667     0.666700000000     0          
O        O      0.901233333333     0.672700000000     0.752200000000     0          
O        O      0.980400000000     0.777766666667     0.833300000000     0          
T        Si     0.919133333333     0.667600000000     0.706700000000     0          
T        Si     0.967966666667     0.777600000000     0.783100000000     0          
O        O      0.993800000000     0.888900000000     0.666700000000     0          
O        O      0.993966666667     0.895200000000     0.752200000000     0          
O        O      0.888900000000     0.869300000000     0.833300000000     0          
T        Si     0.999066666667     0.918200000000     0.706700000000     0          
T        Si     0.889066666667     0.857033333333     0.783100000000     0          
O        O      0.771566666667     0.777766666667     0.333300000000     0          
O        O      0.765433333333     0.771466666667     0.247800000000     0          
O        O      0.686266666667     0.797366666667     0.166700000000     0          
T        Si     0.747533333333     0.748466666667     0.293300000000     0          
T        Si     0.698700000000     0.809633333333     0.216900000000     0          
O        O      0.888900000000     0.993800000000     0.333300000000     0          
O        O      0.895200000000     0.993966666667     0.247800000000     0          
O        O      0.869300000000     0.888900000000     0.166700000000     0          
T        Si     0.918200000000     0.999066666667     0.293300000000     0          
T        Si     0.857033333333     0.889066666667     0.216900000000     0          
O        O      0.672866666667     0.895100000000     0.333300000000     0          
O        O      0.672700000000     0.901233333333     0.247800000000     0          
O        O      0.777766666667     0.980400000000     0.166700000000     0          
T        Si     0.667600000000     0.919133333333     0.293300000000     0          
T        Si     0.777600000000     0.967966666667     0.216900000000     0          
O        O      0.845955555556     0.691877777778     0.628833333333     0          
O        O      0.784088888889     0.679011111111     0.581133333333     0          
O        O      0.820455555556     0.743577777778     0.630033333333     0          
O        O      0.758188888889     0.758177777778     0.500033333333     0          
O        O      0.710288888889     0.753877777778     0.563533333333     0          
O        O      0.731255555556     0.698944444444     0.556333333333     0          
T        Si     0.807088888889     0.696911111111     0.626633333333     0          
T        Si     0.745922222222     0.745744444444     0.550233333333     0          
O        O      0.974788888889     0.820744444444     0.628833333333     0          
O        O      0.987655555556     0.771744444444     0.581133333333     0          
O        O      0.923088888889     0.743544444444     0.630033333333     0          
O        O      0.912788888889     0.956411111111     0.563533333333     0          
O        O      0.967722222222     0.698977777778     0.556333333333     0          
T        Si     0.969755555556     0.776844444444     0.626633333333     0          
T        Si     0.920922222222     0.666844444444     0.550233333333     0          
O        O      0.845922222222     0.820711111111     0.628833333333     0          
O        O      0.894922222222     0.882577777778     0.581133333333     0          
O        O      0.923122222222     0.846211111111     0.630033333333     0          
O        O      0.710255555556     0.956377777778     0.563533333333     0          
O        O      0.967688888889     0.935411111111     0.556333333333     0          
T        Si     0.889822222222     0.859577777778     0.626633333333     0          
T        Si     0.999822222222     0.920744444444     0.550233333333     0          
O        O      0.802988888889     0.734844444444     0.037833333333     0          
O        O      0.790122222222     0.672977777778     0.085533333333     0          
O        O      0.854688888889     0.709344444444     0.036633333333     0          
O        O      0.864988888889     0.932511111111     0.103133333333     0          
O        O      0.810055555556     0.953477777778     0.110333333333     0          
T        Si     0.808022222222     0.695977777778     0.040033333333     0          
T        Si     0.856855555556     0.968144444444     0.116433333333     0          
O        O      0.931822222222     0.734811111111     0.037833333333     0          
O        O      0.993688888889     0.783811111111     0.085533333333     0          
O        O      0.957322222222     0.812011111111     0.036633333333     0          
O        O      0.734155555556     0.932477777778     0.103133333333     0          
O        O      0.713188888889     0.856577777778     0.110333333333     0          
T        Si     0.970688888889     0.778711111111     0.040033333333     0          
T        Si     0.698522222222     0.888711111111     0.116433333333     0          
O        O      0.882688888889     0.882677777778     0.000033333333     0          
O        O      0.931855555556     0.863677777778     0.037833333333     0          
O        O      0.882855555556     0.876544444444     0.085533333333     0          
O        O      0.854655555556     0.811977777778     0.036633333333     0          
O        O      0.734188888889     0.801677777778     0.103133333333     0          
O        O      0.810088888889     0.856611111111     0.110333333333     0          
T        Si     0.887955555556     0.858644444444     0.040033333333     0          
T        Si     0.777955555556     0.809811111111     0.116433333333     0          
O        O      0.993688888889     0.876544444444     0.085533333333     0          
T        Si     0.970688888889     0.858644444444     0.040033333333     0          
T        Si     0.698522222222     0.809811111111     0.116433333333     0          
O        O      0.783988888889     0.783977777778     0.000033333333     0          
O        O      0.790122222222     0.783811111111     0.085533333333     0          
T        Si     0.808022222222     0.778711111111     0.040033333333     0          
T        Si     0.856855555556     0.888711111111     0.116433333333     0          
O        O      0.882855555556     0.672977777778     0.085533333333     0          
T        Si     0.887955555556     0.695977777778     0.040033333333     0          
T        Si     0.777955555556     0.968144444444     0.116433333333     0          
O        O      0.987655555556     0.882577777778     0.581133333333     0          
O        O      0.908488888889     0.908477777778     0.500033333333     0          
T        Si     0.969755555556     0.859577777778     0.626633333333     0          
T        Si     0.920922222222     0.920744444444     0.550233333333     0          
O        O      0.784088888889     0.771744444444     0.581133333333     0          
T        Si     0.807088888889     0.776844444444     0.626633333333     0          
T        Si     0.745922222222     0.666844444444     0.550233333333     0          
O        O      0.894922222222     0.679011111111     0.581133333333     0          
T        Si     0.889822222222     0.696911111111     0.626633333333     0          
T        Si     0.999822222222     0.745744444444     0.550233333333     0          
O        O      0.734844444444     0.802988888889     0.962166666667     0          
O        O      0.672977777778     0.790122222222     0.914466666667     0          
O        O      0.709344444444     0.854688888889     0.963366666667     0          
O        O      0.932511111111     0.864988888889     0.896866666667     0          
O        O      0.953477777778     0.810055555556     0.889666666667     0          
T        Si     0.695977777778     0.808022222222     0.959966666667     0          
T        Si     0.968144444444     0.856855555556     0.883566666667     0          
O        O      0.863677777778     0.931855555556     0.962166666667     0          
O        O      0.876544444444     0.882855555556     0.914466666667     0          
O        O      0.811977777778     0.854655555556     0.963366666667     0          
O        O      0.801677777778     0.734188888889     0.896866666667     0          
O        O      0.856611111111     0.810088888889     0.889666666667     0          
T        Si     0.858644444444     0.887955555556     0.959966666667     0          
T        Si     0.809811111111     0.777955555556     0.883566666667     0          
O        O      0.734811111111     0.931822222222     0.962166666667     0          
O        O      0.783811111111     0.993688888889     0.914466666667     0          
O        O      0.812011111111     0.957322222222     0.963366666667     0          
O        O      0.932477777778     0.734155555556     0.896866666667     0          
O        O      0.856577777778     0.713188888889     0.889666666667     0          
T        Si     0.778711111111     0.970688888889     0.959966666667     0          
T        Si     0.888711111111     0.698522222222     0.883566666667     0          
O        O      0.691877777778     0.845955555556     0.371166666667     0          
O        O      0.679011111111     0.784088888889     0.418866666667     0          
O        O      0.743577777778     0.820455555556     0.369966666667     0          
O        O      0.753877777778     0.710288888889     0.436466666667     0          
O        O      0.698944444444     0.731255555556     0.443666666667     0          
T        Si     0.696911111111     0.807088888889     0.373366666667     0          
T        Si     0.745744444444     0.745922222222     0.449766666667     0          
O        O      0.820711111111     0.845922222222     0.371166666667     0          
O        O      0.882577777778     0.894922222222     0.418866666667     0          
O        O      0.846211111111     0.923122222222     0.369966666667     0          
O        O      0.956377777778     0.710255555556     0.436466666667     0          
O        O      0.935411111111     0.967688888889     0.443666666667     0          
T        Si     0.859577777778     0.889822222222     0.373366666667     0          
T        Si     0.920744444444     0.999822222222     0.449766666667     0          
O        O      0.820744444444     0.974788888889     0.371166666667     0          
O        O      0.771744444444     0.987655555556     0.418866666667     0          
O        O      0.743544444444     0.923088888889     0.369966666667     0          
O        O      0.956411111111     0.912788888889     0.436466666667     0          
O        O      0.698977777778     0.967722222222     0.443666666667     0          
T        Si     0.776844444444     0.969755555556     0.373366666667     0          
T        Si     0.666844444444     0.920922222222     0.449766666667     0          
O        O      0.882577777778     0.987655555556     0.418866666667     0          
T        Si     0.859577777778     0.969755555556     0.373366666667     0          
T        Si     0.920744444444     0.920922222222     0.449766666667     0          
O        O      0.679011111111     0.894922222222     0.418866666667     0          
T        Si     0.696911111111     0.889822222222     0.373366666667     0          
T        Si     0.745744444444     0.999822222222     0.449766666667     0          
O        O      0.771744444444     0.784088888889     0.418866666667     0          
T        Si     0.776844444444     0.807088888889     0.373366666667     0          
T        Si     0.666844444444     0.745922222222     0.449766666667     0          
O        O      0.876544444444     0.993688888889     0.914466666667     0          
T        Si     0.858644444444     0.970688888889     0.959966666667     0          
T        Si     0.809811111111     0.698522222222     0.883566666667     0          
O        O      0.672977777778     0.882855555556     0.914466666667     0          
T        Si     0.695977777778     0.887955555556     0.959966666667     0          
T        Si     0.968144444444     0.777955555556     0.883566666667     0          
O        O      0.783811111111     0.790122222222     0.914466666667     0          
T        Si     0.778711111111     0.808022222222     0.959966666667     0          
T        Si     0.888711111111     0.856855555556     0.883566666667     0          


