data_zeolite

_audit_creation_method RASPA-1.0
_audit_creation_date 2021-6-8
_audit_author_name ''

_cell_length_a    11.673
_cell_length_b    21.969
_cell_length_c    25.17
_cell_angle_alpha 90
_cell_angle_beta  90
_cell_angle_gamma 90
_cell_volume      77456.4

_symmetry_cell_setting          orthorhombic
_symmetry_space_group_name_Hall 'P 1'
_symmetry_space_group_name_H-M  'P 1'
_symmetry_Int_Tables_number     1

_symmetry_equiv_pos_as_xyz 'x,y,z'

loop_
_atom_site_label
_atom_site_type_symbol
_atom_site_fract_x
_atom_site_fract_y
_atom_site_fract_z
_atom_site_charge
T        Si     0.071533333333     0.062650000000     0.075100000000     0          
T        Si     0.083133333333     0.063350000000     0.328800000000     0          
T        Si     0.043833333333     0.124550000000     0.094500000000     0          
T        Si     0.043800000000     0.214750000000     0.280900000000     0          
T        Si     0.043833333333     0.215450000000     0.030850000000     0          
T        Si     0.043900000000     0.203200000000     0.375000000000     0          
T        Si     0.043900000000     0.223700000000     0.125000000000     0          
T        Si     0.000000000000     0.026050000000     0.094400000000     0          
T        Si     0.000000000000     0.047100000000     0.344450000000     0          
T        Si     0.261800000000     0.437350000000     0.325100000000     0          
T        Si     0.250200000000     0.436650000000     0.078800000000     0          
T        Si     0.289500000000     0.375450000000     0.344500000000     0          
T        Si     0.289533333333     0.285250000000     0.030900000000     0          
T        Si     0.289500000000     0.284550000000     0.280850000000     0          
T        Si     0.289433333333     0.296800000000     0.125000000000     0          
T        Si     0.289433333333     0.276300000000     0.375000000000     0          
T        Si     0.000000000000     0.473950000000     0.344400000000     0          
T        Si     0.000000000000     0.452900000000     0.094450000000     0          
T        Si     0.071533333333     0.437350000000     0.424900000000     0          
T        Si     0.083133333333     0.436650000000     0.171200000000     0          
T        Si     0.043833333333     0.375450000000     0.405500000000     0          
T        Si     0.043800000000     0.285250000000     0.219100000000     0          
T        Si     0.043833333333     0.284550000000     0.469150000000     0          
T        Si     0.043900000000     0.296800000000     0.125000000000     0          
T        Si     0.043900000000     0.276300000000     0.375000000000     0          
T        Si     0.000000000000     0.473950000000     0.405600000000     0          
T        Si     0.000000000000     0.452900000000     0.155550000000     0          
T        Si     0.261800000000     0.062650000000     0.174900000000     0          
T        Si     0.250200000000     0.063350000000     0.421200000000     0          
T        Si     0.289500000000     0.124550000000     0.155500000000     0          
T        Si     0.289533333333     0.214750000000     0.469100000000     0          
T        Si     0.289500000000     0.215450000000     0.219150000000     0          
T        Si     0.289433333333     0.203200000000     0.375000000000     0          
T        Si     0.289433333333     0.223700000000     0.125000000000     0          
T        Si     0.000000000000     0.026050000000     0.155600000000     0          
T        Si     0.000000000000     0.047100000000     0.405550000000     0          
T        Si     0.261800000000     0.437350000000     0.424900000000     0          
T        Si     0.250200000000     0.436650000000     0.171200000000     0          
T        Si     0.289500000000     0.375450000000     0.405500000000     0          
T        Si     0.289533333333     0.285250000000     0.219100000000     0          
T        Si     0.289500000000     0.284550000000     0.469150000000     0          
T        Si     0.071533333333     0.062650000000     0.174900000000     0          
T        Si     0.083133333333     0.063350000000     0.421200000000     0          
T        Si     0.043833333333     0.124550000000     0.155500000000     0          
T        Si     0.043800000000     0.214750000000     0.469100000000     0          
T        Si     0.043833333333     0.215450000000     0.219150000000     0          
T        Si     0.261800000000     0.062650000000     0.075100000000     0          
T        Si     0.250200000000     0.063350000000     0.328800000000     0          
T        Si     0.289500000000     0.124550000000     0.094500000000     0          
T        Si     0.289533333333     0.214750000000     0.280900000000     0          
T        Si     0.289500000000     0.215450000000     0.030850000000     0          
T        Si     0.071533333333     0.437350000000     0.325100000000     0          
T        Si     0.083133333333     0.436650000000     0.078800000000     0          
T        Si     0.043833333333     0.375450000000     0.344500000000     0          
T        Si     0.043800000000     0.285250000000     0.030900000000     0          
T        Si     0.043833333333     0.284550000000     0.280850000000     0          
T        Si     0.238200000000     0.312650000000     0.075100000000     0          
T        Si     0.249800000000     0.313350000000     0.328800000000     0          
T        Si     0.210500000000     0.374550000000     0.094500000000     0          
T        Si     0.210466666667     0.464750000000     0.280900000000     0          
T        Si     0.210500000000     0.465450000000     0.030850000000     0          
T        Si     0.210566666667     0.453200000000     0.375000000000     0          
T        Si     0.210566666667     0.473700000000     0.125000000000     0          
T        Si     0.166666666667     0.276050000000     0.094400000000     0          
T        Si     0.166666666667     0.297100000000     0.344450000000     0          
T        Si     0.095133333333     0.187350000000     0.325100000000     0          
T        Si     0.083533333333     0.186650000000     0.078800000000     0          
T        Si     0.122833333333     0.125450000000     0.344500000000     0          
T        Si     0.122866666667     0.035250000000     0.030900000000     0          
T        Si     0.122833333333     0.034550000000     0.280850000000     0          
T        Si     0.122766666667     0.046800000000     0.125000000000     0          
T        Si     0.122766666667     0.026300000000     0.375000000000     0          
T        Si     0.166666666667     0.223950000000     0.344400000000     0          
T        Si     0.166666666667     0.202900000000     0.094450000000     0          
T        Si     0.238200000000     0.187350000000     0.424900000000     0          
T        Si     0.249800000000     0.186650000000     0.171200000000     0          
T        Si     0.210500000000     0.125450000000     0.405500000000     0          
T        Si     0.210466666667     0.035250000000     0.219100000000     0          
T        Si     0.210500000000     0.034550000000     0.469150000000     0          
T        Si     0.210566666667     0.046800000000     0.125000000000     0          
T        Si     0.210566666667     0.026300000000     0.375000000000     0          
T        Si     0.166666666667     0.223950000000     0.405600000000     0          
T        Si     0.166666666667     0.202900000000     0.155550000000     0          
T        Si     0.095133333333     0.312650000000     0.174900000000     0          
T        Si     0.083533333333     0.313350000000     0.421200000000     0          
T        Si     0.122833333333     0.374550000000     0.155500000000     0          
T        Si     0.122866666667     0.464750000000     0.469100000000     0          
T        Si     0.122833333333     0.465450000000     0.219150000000     0          
T        Si     0.122766666667     0.453200000000     0.375000000000     0          
T        Si     0.122766666667     0.473700000000     0.125000000000     0          
T        Si     0.166666666667     0.276050000000     0.155600000000     0          
T        Si     0.166666666667     0.297100000000     0.405550000000     0          
T        Si     0.095133333333     0.187350000000     0.424900000000     0          
T        Si     0.083533333333     0.186650000000     0.171200000000     0          
T        Si     0.122833333333     0.125450000000     0.405500000000     0          
T        Si     0.122866666667     0.035250000000     0.219100000000     0          
T        Si     0.122833333333     0.034550000000     0.469150000000     0          
T        Si     0.238200000000     0.312650000000     0.174900000000     0          
T        Si     0.249800000000     0.313350000000     0.421200000000     0          
T        Si     0.210500000000     0.374550000000     0.155500000000     0          
T        Si     0.210466666667     0.464750000000     0.469100000000     0          
T        Si     0.210500000000     0.465450000000     0.219150000000     0          
T        Si     0.095133333333     0.312650000000     0.075100000000     0          
T        Si     0.083533333333     0.313350000000     0.328800000000     0          
T        Si     0.122833333333     0.374550000000     0.094500000000     0          
T        Si     0.122866666667     0.464750000000     0.280900000000     0          
T        Si     0.122833333333     0.465450000000     0.030850000000     0          
T        Si     0.238200000000     0.187350000000     0.325100000000     0          
T        Si     0.249800000000     0.186650000000     0.078800000000     0          
T        Si     0.210500000000     0.125450000000     0.344500000000     0          
T        Si     0.210466666667     0.035250000000     0.030900000000     0          
T        Si     0.210500000000     0.034550000000     0.280850000000     0          
T        Si     0.071533333333     0.062650000000     0.575100000000     0          
T        Si     0.083133333333     0.063350000000     0.828800000000     0          
T        Si     0.043833333333     0.124550000000     0.594500000000     0          
T        Si     0.043800000000     0.214750000000     0.780900000000     0          
T        Si     0.043833333333     0.215450000000     0.530850000000     0          
T        Si     0.043900000000     0.203200000000     0.875000000000     0          
T        Si     0.043900000000     0.223700000000     0.625000000000     0          
T        Si     0.000000000000     0.026050000000     0.594400000000     0          
T        Si     0.000000000000     0.047100000000     0.844450000000     0          
T        Si     0.261800000000     0.437350000000     0.825100000000     0          
T        Si     0.250200000000     0.436650000000     0.578800000000     0          
T        Si     0.289500000000     0.375450000000     0.844500000000     0          
T        Si     0.289533333333     0.285250000000     0.530900000000     0          
T        Si     0.289500000000     0.284550000000     0.780850000000     0          
T        Si     0.289433333333     0.296800000000     0.625000000000     0          
T        Si     0.289433333333     0.276300000000     0.875000000000     0          
T        Si     0.000000000000     0.473950000000     0.844400000000     0          
T        Si     0.000000000000     0.452900000000     0.594450000000     0          
T        Si     0.071533333333     0.437350000000     0.924900000000     0          
T        Si     0.083133333333     0.436650000000     0.671200000000     0          
T        Si     0.043833333333     0.375450000000     0.905500000000     0          
T        Si     0.043800000000     0.285250000000     0.719100000000     0          
T        Si     0.043833333333     0.284550000000     0.969150000000     0          
T        Si     0.043900000000     0.296800000000     0.625000000000     0          
T        Si     0.043900000000     0.276300000000     0.875000000000     0          
T        Si     0.000000000000     0.473950000000     0.905600000000     0          
T        Si     0.000000000000     0.452900000000     0.655550000000     0          
T        Si     0.261800000000     0.062650000000     0.674900000000     0          
T        Si     0.250200000000     0.063350000000     0.921200000000     0          
T        Si     0.289500000000     0.124550000000     0.655500000000     0          
T        Si     0.289533333333     0.214750000000     0.969100000000     0          
T        Si     0.289500000000     0.215450000000     0.719150000000     0          
T        Si     0.289433333333     0.203200000000     0.875000000000     0          
T        Si     0.289433333333     0.223700000000     0.625000000000     0          
T        Si     0.000000000000     0.026050000000     0.655600000000     0          
T        Si     0.000000000000     0.047100000000     0.905550000000     0          
T        Si     0.261800000000     0.437350000000     0.924900000000     0          
T        Si     0.250200000000     0.436650000000     0.671200000000     0          
T        Si     0.289500000000     0.375450000000     0.905500000000     0          
T        Si     0.289533333333     0.285250000000     0.719100000000     0          
T        Si     0.289500000000     0.284550000000     0.969150000000     0          
T        Si     0.071533333333     0.062650000000     0.674900000000     0          
T        Si     0.083133333333     0.063350000000     0.921200000000     0          
T        Si     0.043833333333     0.124550000000     0.655500000000     0          
T        Si     0.043800000000     0.214750000000     0.969100000000     0          
T        Si     0.043833333333     0.215450000000     0.719150000000     0          
T        Si     0.261800000000     0.062650000000     0.575100000000     0          
T        Si     0.250200000000     0.063350000000     0.828800000000     0          
T        Si     0.289500000000     0.124550000000     0.594500000000     0          
T        Si     0.289533333333     0.214750000000     0.780900000000     0          
T        Si     0.289500000000     0.215450000000     0.530850000000     0          
T        Si     0.071533333333     0.437350000000     0.825100000000     0          
T        Si     0.083133333333     0.436650000000     0.578800000000     0          
T        Si     0.043833333333     0.375450000000     0.844500000000     0          
T        Si     0.043800000000     0.285250000000     0.530900000000     0          
T        Si     0.043833333333     0.284550000000     0.780850000000     0          
T        Si     0.238200000000     0.312650000000     0.575100000000     0          
T        Si     0.249800000000     0.313350000000     0.828800000000     0          
T        Si     0.210500000000     0.374550000000     0.594500000000     0          
T        Si     0.210466666667     0.464750000000     0.780900000000     0          
T        Si     0.210500000000     0.465450000000     0.530850000000     0          
T        Si     0.210566666667     0.453200000000     0.875000000000     0          
T        Si     0.210566666667     0.473700000000     0.625000000000     0          
T        Si     0.166666666667     0.276050000000     0.594400000000     0          
T        Si     0.166666666667     0.297100000000     0.844450000000     0          
T        Si     0.095133333333     0.187350000000     0.825100000000     0          
T        Si     0.083533333333     0.186650000000     0.578800000000     0          
T        Si     0.122833333333     0.125450000000     0.844500000000     0          
T        Si     0.122866666667     0.035250000000     0.530900000000     0          
T        Si     0.122833333333     0.034550000000     0.780850000000     0          
T        Si     0.122766666667     0.046800000000     0.625000000000     0          
T        Si     0.122766666667     0.026300000000     0.875000000000     0          
T        Si     0.166666666667     0.223950000000     0.844400000000     0          
T        Si     0.166666666667     0.202900000000     0.594450000000     0          
T        Si     0.238200000000     0.187350000000     0.924900000000     0          
T        Si     0.249800000000     0.186650000000     0.671200000000     0          
T        Si     0.210500000000     0.125450000000     0.905500000000     0          
T        Si     0.210466666667     0.035250000000     0.719100000000     0          
T        Si     0.210500000000     0.034550000000     0.969150000000     0          
T        Si     0.210566666667     0.046800000000     0.625000000000     0          
T        Si     0.210566666667     0.026300000000     0.875000000000     0          
T        Si     0.166666666667     0.223950000000     0.905600000000     0          
T        Si     0.166666666667     0.202900000000     0.655550000000     0          
T        Si     0.095133333333     0.312650000000     0.674900000000     0          
T        Si     0.083533333333     0.313350000000     0.921200000000     0          
T        Si     0.122833333333     0.374550000000     0.655500000000     0          
T        Si     0.122866666667     0.464750000000     0.969100000000     0          
T        Si     0.122833333333     0.465450000000     0.719150000000     0          
T        Si     0.122766666667     0.453200000000     0.875000000000     0          
T        Si     0.122766666667     0.473700000000     0.625000000000     0          
T        Si     0.166666666667     0.276050000000     0.655600000000     0          
T        Si     0.166666666667     0.297100000000     0.905550000000     0          
T        Si     0.095133333333     0.187350000000     0.924900000000     0          
T        Si     0.083533333333     0.186650000000     0.671200000000     0          
T        Si     0.122833333333     0.125450000000     0.905500000000     0          
T        Si     0.122866666667     0.035250000000     0.719100000000     0          
T        Si     0.122833333333     0.034550000000     0.969150000000     0          
T        Si     0.238200000000     0.312650000000     0.674900000000     0          
T        Si     0.249800000000     0.313350000000     0.921200000000     0          
T        Si     0.210500000000     0.374550000000     0.655500000000     0          
T        Si     0.210466666667     0.464750000000     0.969100000000     0          
T        Si     0.210500000000     0.465450000000     0.719150000000     0          
T        Si     0.095133333333     0.312650000000     0.575100000000     0          
T        Si     0.083533333333     0.313350000000     0.828800000000     0          
T        Si     0.122833333333     0.374550000000     0.594500000000     0          
T        Si     0.122866666667     0.464750000000     0.780900000000     0          
T        Si     0.122833333333     0.465450000000     0.530850000000     0          
T        Si     0.238200000000     0.187350000000     0.825100000000     0          
T        Si     0.249800000000     0.186650000000     0.578800000000     0          
T        Si     0.210500000000     0.125450000000     0.844500000000     0          
T        Si     0.210466666667     0.035250000000     0.530900000000     0          
T        Si     0.210500000000     0.034550000000     0.780850000000     0          
T        Si     0.071533333333     0.562650000000     0.075100000000     0          
T        Si     0.083133333333     0.563350000000     0.328800000000     0          
T        Si     0.043833333333     0.624550000000     0.094500000000     0          
T        Si     0.043800000000     0.714750000000     0.280900000000     0          
T        Si     0.043833333333     0.715450000000     0.030850000000     0          
T        Si     0.043900000000     0.703200000000     0.375000000000     0          
T        Si     0.043900000000     0.723700000000     0.125000000000     0          
T        Si     0.000000000000     0.526050000000     0.094400000000     0          
T        Si     0.000000000000     0.547100000000     0.344450000000     0          
T        Si     0.261800000000     0.937350000000     0.325100000000     0          
T        Si     0.250200000000     0.936650000000     0.078800000000     0          
T        Si     0.289500000000     0.875450000000     0.344500000000     0          
T        Si     0.289533333333     0.785250000000     0.030900000000     0          
T        Si     0.289500000000     0.784550000000     0.280850000000     0          
T        Si     0.289433333333     0.796800000000     0.125000000000     0          
T        Si     0.289433333333     0.776300000000     0.375000000000     0          
T        Si     0.000000000000     0.973950000000     0.344400000000     0          
T        Si     0.000000000000     0.952900000000     0.094450000000     0          
T        Si     0.071533333333     0.937350000000     0.424900000000     0          
T        Si     0.083133333333     0.936650000000     0.171200000000     0          
T        Si     0.043833333333     0.875450000000     0.405500000000     0          
T        Si     0.043800000000     0.785250000000     0.219100000000     0          
T        Si     0.043833333333     0.784550000000     0.469150000000     0          
T        Si     0.043900000000     0.796800000000     0.125000000000     0          
T        Si     0.043900000000     0.776300000000     0.375000000000     0          
T        Si     0.000000000000     0.973950000000     0.405600000000     0          
T        Si     0.000000000000     0.952900000000     0.155550000000     0          
T        Si     0.261800000000     0.562650000000     0.174900000000     0          
T        Si     0.250200000000     0.563350000000     0.421200000000     0          
T        Si     0.289500000000     0.624550000000     0.155500000000     0          
T        Si     0.289533333333     0.714750000000     0.469100000000     0          
T        Si     0.289500000000     0.715450000000     0.219150000000     0          
T        Si     0.289433333333     0.703200000000     0.375000000000     0          
T        Si     0.289433333333     0.723700000000     0.125000000000     0          
T        Si     0.000000000000     0.526050000000     0.155600000000     0          
T        Si     0.000000000000     0.547100000000     0.405550000000     0          
T        Si     0.261800000000     0.937350000000     0.424900000000     0          
T        Si     0.250200000000     0.936650000000     0.171200000000     0          
T        Si     0.289500000000     0.875450000000     0.405500000000     0          
T        Si     0.289533333333     0.785250000000     0.219100000000     0          
T        Si     0.289500000000     0.784550000000     0.469150000000     0          
T        Si     0.071533333333     0.562650000000     0.174900000000     0          
T        Si     0.083133333333     0.563350000000     0.421200000000     0          
T        Si     0.043833333333     0.624550000000     0.155500000000     0          
T        Si     0.043800000000     0.714750000000     0.469100000000     0          
T        Si     0.043833333333     0.715450000000     0.219150000000     0          
T        Si     0.261800000000     0.562650000000     0.075100000000     0          
T        Si     0.250200000000     0.563350000000     0.328800000000     0          
T        Si     0.289500000000     0.624550000000     0.094500000000     0          
T        Si     0.289533333333     0.714750000000     0.280900000000     0          
T        Si     0.289500000000     0.715450000000     0.030850000000     0          
T        Si     0.071533333333     0.937350000000     0.325100000000     0          
T        Si     0.083133333333     0.936650000000     0.078800000000     0          
T        Si     0.043833333333     0.875450000000     0.344500000000     0          
T        Si     0.043800000000     0.785250000000     0.030900000000     0          
T        Si     0.043833333333     0.784550000000     0.280850000000     0          
T        Si     0.238200000000     0.812650000000     0.075100000000     0          
T        Si     0.249800000000     0.813350000000     0.328800000000     0          
T        Si     0.210500000000     0.874550000000     0.094500000000     0          
T        Si     0.210466666667     0.964750000000     0.280900000000     0          
T        Si     0.210500000000     0.965450000000     0.030850000000     0          
T        Si     0.210566666667     0.953200000000     0.375000000000     0          
T        Si     0.210566666667     0.973700000000     0.125000000000     0          
T        Si     0.166666666667     0.776050000000     0.094400000000     0          
T        Si     0.166666666667     0.797100000000     0.344450000000     0          
T        Si     0.095133333333     0.687350000000     0.325100000000     0          
T        Si     0.083533333333     0.686650000000     0.078800000000     0          
T        Si     0.122833333333     0.625450000000     0.344500000000     0          
T        Si     0.122866666667     0.535250000000     0.030900000000     0          
T        Si     0.122833333333     0.534550000000     0.280850000000     0          
T        Si     0.122766666667     0.546800000000     0.125000000000     0          
T        Si     0.122766666667     0.526300000000     0.375000000000     0          
T        Si     0.166666666667     0.723950000000     0.344400000000     0          
T        Si     0.166666666667     0.702900000000     0.094450000000     0          
T        Si     0.238200000000     0.687350000000     0.424900000000     0          
T        Si     0.249800000000     0.686650000000     0.171200000000     0          
T        Si     0.210500000000     0.625450000000     0.405500000000     0          
T        Si     0.210466666667     0.535250000000     0.219100000000     0          
T        Si     0.210500000000     0.534550000000     0.469150000000     0          
T        Si     0.210566666667     0.546800000000     0.125000000000     0          
T        Si     0.210566666667     0.526300000000     0.375000000000     0          
T        Si     0.166666666667     0.723950000000     0.405600000000     0          
T        Si     0.166666666667     0.702900000000     0.155550000000     0          
T        Si     0.095133333333     0.812650000000     0.174900000000     0          
T        Si     0.083533333333     0.813350000000     0.421200000000     0          
T        Si     0.122833333333     0.874550000000     0.155500000000     0          
T        Si     0.122866666667     0.964750000000     0.469100000000     0          
T        Si     0.122833333333     0.965450000000     0.219150000000     0          
T        Si     0.122766666667     0.953200000000     0.375000000000     0          
T        Si     0.122766666667     0.973700000000     0.125000000000     0          
T        Si     0.166666666667     0.776050000000     0.155600000000     0          
T        Si     0.166666666667     0.797100000000     0.405550000000     0          
T        Si     0.095133333333     0.687350000000     0.424900000000     0          
T        Si     0.083533333333     0.686650000000     0.171200000000     0          
T        Si     0.122833333333     0.625450000000     0.405500000000     0          
T        Si     0.122866666667     0.535250000000     0.219100000000     0          
T        Si     0.122833333333     0.534550000000     0.469150000000     0          
T        Si     0.238200000000     0.812650000000     0.174900000000     0          
T        Si     0.249800000000     0.813350000000     0.421200000000     0          
T        Si     0.210500000000     0.874550000000     0.155500000000     0          
T        Si     0.210466666667     0.964750000000     0.469100000000     0          
T        Si     0.210500000000     0.965450000000     0.219150000000     0          
T        Si     0.095133333333     0.812650000000     0.075100000000     0          
T        Si     0.083533333333     0.813350000000     0.328800000000     0          
T        Si     0.122833333333     0.874550000000     0.094500000000     0          
T        Si     0.122866666667     0.964750000000     0.280900000000     0          
T        Si     0.122833333333     0.965450000000     0.030850000000     0          
T        Si     0.238200000000     0.687350000000     0.325100000000     0          
T        Si     0.249800000000     0.686650000000     0.078800000000     0          
T        Si     0.210500000000     0.625450000000     0.344500000000     0          
T        Si     0.210466666667     0.535250000000     0.030900000000     0          
T        Si     0.210500000000     0.534550000000     0.280850000000     0          
T        Si     0.071533333333     0.562650000000     0.575100000000     0          
T        Si     0.083133333333     0.563350000000     0.828800000000     0          
T        Si     0.043833333333     0.624550000000     0.594500000000     0          
T        Si     0.043800000000     0.714750000000     0.780900000000     0          
T        Si     0.043833333333     0.715450000000     0.530850000000     0          
T        Si     0.043900000000     0.703200000000     0.875000000000     0          
T        Si     0.043900000000     0.723700000000     0.625000000000     0          
T        Si     0.000000000000     0.526050000000     0.594400000000     0          
T        Si     0.000000000000     0.547100000000     0.844450000000     0          
T        Si     0.261800000000     0.937350000000     0.825100000000     0          
T        Si     0.250200000000     0.936650000000     0.578800000000     0          
T        Si     0.289500000000     0.875450000000     0.844500000000     0          
T        Si     0.289533333333     0.785250000000     0.530900000000     0          
T        Si     0.289500000000     0.784550000000     0.780850000000     0          
T        Si     0.289433333333     0.796800000000     0.625000000000     0          
T        Si     0.289433333333     0.776300000000     0.875000000000     0          
T        Si     0.000000000000     0.973950000000     0.844400000000     0          
T        Si     0.000000000000     0.952900000000     0.594450000000     0          
T        Si     0.071533333333     0.937350000000     0.924900000000     0          
T        Si     0.083133333333     0.936650000000     0.671200000000     0          
T        Si     0.043833333333     0.875450000000     0.905500000000     0          
T        Si     0.043800000000     0.785250000000     0.719100000000     0          
T        Si     0.043833333333     0.784550000000     0.969150000000     0          
T        Si     0.043900000000     0.796800000000     0.625000000000     0          
T        Si     0.043900000000     0.776300000000     0.875000000000     0          
T        Si     0.000000000000     0.973950000000     0.905600000000     0          
T        Si     0.000000000000     0.952900000000     0.655550000000     0          
T        Si     0.261800000000     0.562650000000     0.674900000000     0          
T        Si     0.250200000000     0.563350000000     0.921200000000     0          
T        Si     0.289500000000     0.624550000000     0.655500000000     0          
T        Si     0.289533333333     0.714750000000     0.969100000000     0          
T        Si     0.289500000000     0.715450000000     0.719150000000     0          
T        Si     0.289433333333     0.703200000000     0.875000000000     0          
T        Si     0.289433333333     0.723700000000     0.625000000000     0          
T        Si     0.000000000000     0.526050000000     0.655600000000     0          
T        Si     0.000000000000     0.547100000000     0.905550000000     0          
T        Si     0.261800000000     0.937350000000     0.924900000000     0          
T        Si     0.250200000000     0.936650000000     0.671200000000     0          
T        Si     0.289500000000     0.875450000000     0.905500000000     0          
T        Si     0.289533333333     0.785250000000     0.719100000000     0          
T        Si     0.289500000000     0.784550000000     0.969150000000     0          
T        Si     0.071533333333     0.562650000000     0.674900000000     0          
T        Si     0.083133333333     0.563350000000     0.921200000000     0          
T        Si     0.043833333333     0.624550000000     0.655500000000     0          
T        Si     0.043800000000     0.714750000000     0.969100000000     0          
T        Si     0.043833333333     0.715450000000     0.719150000000     0          
T        Si     0.261800000000     0.562650000000     0.575100000000     0          
T        Si     0.250200000000     0.563350000000     0.828800000000     0          
T        Si     0.289500000000     0.624550000000     0.594500000000     0          
T        Si     0.289533333333     0.714750000000     0.780900000000     0          
T        Si     0.289500000000     0.715450000000     0.530850000000     0          
T        Si     0.071533333333     0.937350000000     0.825100000000     0          
T        Si     0.083133333333     0.936650000000     0.578800000000     0          
T        Si     0.043833333333     0.875450000000     0.844500000000     0          
T        Si     0.043800000000     0.785250000000     0.530900000000     0          
T        Si     0.043833333333     0.784550000000     0.780850000000     0          
T        Si     0.238200000000     0.812650000000     0.575100000000     0          
T        Si     0.249800000000     0.813350000000     0.828800000000     0          
T        Si     0.210500000000     0.874550000000     0.594500000000     0          
T        Si     0.210466666667     0.964750000000     0.780900000000     0          
T        Si     0.210500000000     0.965450000000     0.530850000000     0          
T        Si     0.210566666667     0.953200000000     0.875000000000     0          
T        Si     0.210566666667     0.973700000000     0.625000000000     0          
T        Si     0.166666666667     0.776050000000     0.594400000000     0          
T        Si     0.166666666667     0.797100000000     0.844450000000     0          
T        Si     0.095133333333     0.687350000000     0.825100000000     0          
T        Si     0.083533333333     0.686650000000     0.578800000000     0          
T        Si     0.122833333333     0.625450000000     0.844500000000     0          
T        Si     0.122866666667     0.535250000000     0.530900000000     0          
T        Si     0.122833333333     0.534550000000     0.780850000000     0          
T        Si     0.122766666667     0.546800000000     0.625000000000     0          
T        Si     0.122766666667     0.526300000000     0.875000000000     0          
T        Si     0.166666666667     0.723950000000     0.844400000000     0          
T        Si     0.166666666667     0.702900000000     0.594450000000     0          
T        Si     0.238200000000     0.687350000000     0.924900000000     0          
T        Si     0.249800000000     0.686650000000     0.671200000000     0          
T        Si     0.210500000000     0.625450000000     0.905500000000     0          
T        Si     0.210466666667     0.535250000000     0.719100000000     0          
T        Si     0.210500000000     0.534550000000     0.969150000000     0          
T        Si     0.210566666667     0.546800000000     0.625000000000     0          
T        Si     0.210566666667     0.526300000000     0.875000000000     0          
T        Si     0.166666666667     0.723950000000     0.905600000000     0          
T        Si     0.166666666667     0.702900000000     0.655550000000     0          
T        Si     0.095133333333     0.812650000000     0.674900000000     0          
T        Si     0.083533333333     0.813350000000     0.921200000000     0          
T        Si     0.122833333333     0.874550000000     0.655500000000     0          
T        Si     0.122866666667     0.964750000000     0.969100000000     0          
T        Si     0.122833333333     0.965450000000     0.719150000000     0          
T        Si     0.122766666667     0.953200000000     0.875000000000     0          
T        Si     0.122766666667     0.973700000000     0.625000000000     0          
T        Si     0.166666666667     0.776050000000     0.655600000000     0          
T        Si     0.166666666667     0.797100000000     0.905550000000     0          
T        Si     0.095133333333     0.687350000000     0.924900000000     0          
T        Si     0.083533333333     0.686650000000     0.671200000000     0          
T        Si     0.122833333333     0.625450000000     0.905500000000     0          
T        Si     0.122866666667     0.535250000000     0.719100000000     0          
T        Si     0.122833333333     0.534550000000     0.969150000000     0          
T        Si     0.238200000000     0.812650000000     0.674900000000     0          
T        Si     0.249800000000     0.813350000000     0.921200000000     0          
T        Si     0.210500000000     0.874550000000     0.655500000000     0          
T        Si     0.210466666667     0.964750000000     0.969100000000     0          
T        Si     0.210500000000     0.965450000000     0.719150000000     0          
T        Si     0.095133333333     0.812650000000     0.575100000000     0          
T        Si     0.083533333333     0.813350000000     0.828800000000     0          
T        Si     0.122833333333     0.874550000000     0.594500000000     0          
T        Si     0.122866666667     0.964750000000     0.780900000000     0          
T        Si     0.122833333333     0.965450000000     0.530850000000     0          
T        Si     0.238200000000     0.687350000000     0.825100000000     0          
T        Si     0.249800000000     0.686650000000     0.578800000000     0          
T        Si     0.210500000000     0.625450000000     0.844500000000     0          
T        Si     0.210466666667     0.535250000000     0.530900000000     0          
T        Si     0.210500000000     0.534550000000     0.780850000000     0          
T        Si     0.404866666667     0.062650000000     0.075100000000     0          
T        Si     0.416466666667     0.063350000000     0.328800000000     0          
T        Si     0.377166666667     0.124550000000     0.094500000000     0          
T        Si     0.377133333333     0.214750000000     0.280900000000     0          
T        Si     0.377166666667     0.215450000000     0.030850000000     0          
T        Si     0.377233333333     0.203200000000     0.375000000000     0          
T        Si     0.377233333333     0.223700000000     0.125000000000     0          
T        Si     0.333333333333     0.026050000000     0.094400000000     0          
T        Si     0.333333333333     0.047100000000     0.344450000000     0          
T        Si     0.595133333333     0.437350000000     0.325100000000     0          
T        Si     0.583533333333     0.436650000000     0.078800000000     0          
T        Si     0.622833333333     0.375450000000     0.344500000000     0          
T        Si     0.622866666667     0.285250000000     0.030900000000     0          
T        Si     0.622833333333     0.284550000000     0.280850000000     0          
T        Si     0.622766666667     0.296800000000     0.125000000000     0          
T        Si     0.622766666667     0.276300000000     0.375000000000     0          
T        Si     0.333333333333     0.473950000000     0.344400000000     0          
T        Si     0.333333333333     0.452900000000     0.094450000000     0          
T        Si     0.404866666667     0.437350000000     0.424900000000     0          
T        Si     0.416466666667     0.436650000000     0.171200000000     0          
T        Si     0.377166666667     0.375450000000     0.405500000000     0          
T        Si     0.377133333333     0.285250000000     0.219100000000     0          
T        Si     0.377166666667     0.284550000000     0.469150000000     0          
T        Si     0.377233333333     0.296800000000     0.125000000000     0          
T        Si     0.377233333333     0.276300000000     0.375000000000     0          
T        Si     0.333333333333     0.473950000000     0.405600000000     0          
T        Si     0.333333333333     0.452900000000     0.155550000000     0          
T        Si     0.595133333333     0.062650000000     0.174900000000     0          
T        Si     0.583533333333     0.063350000000     0.421200000000     0          
T        Si     0.622833333333     0.124550000000     0.155500000000     0          
T        Si     0.622866666667     0.214750000000     0.469100000000     0          
T        Si     0.622833333333     0.215450000000     0.219150000000     0          
T        Si     0.622766666667     0.203200000000     0.375000000000     0          
T        Si     0.622766666667     0.223700000000     0.125000000000     0          
T        Si     0.333333333333     0.026050000000     0.155600000000     0          
T        Si     0.333333333333     0.047100000000     0.405550000000     0          
T        Si     0.595133333333     0.437350000000     0.424900000000     0          
T        Si     0.583533333333     0.436650000000     0.171200000000     0          
T        Si     0.622833333333     0.375450000000     0.405500000000     0          
T        Si     0.622866666667     0.285250000000     0.219100000000     0          
T        Si     0.622833333333     0.284550000000     0.469150000000     0          
T        Si     0.404866666667     0.062650000000     0.174900000000     0          
T        Si     0.416466666667     0.063350000000     0.421200000000     0          
T        Si     0.377166666667     0.124550000000     0.155500000000     0          
T        Si     0.377133333333     0.214750000000     0.469100000000     0          
T        Si     0.377166666667     0.215450000000     0.219150000000     0          
T        Si     0.595133333333     0.062650000000     0.075100000000     0          
T        Si     0.583533333333     0.063350000000     0.328800000000     0          
T        Si     0.622833333333     0.124550000000     0.094500000000     0          
T        Si     0.622866666667     0.214750000000     0.280900000000     0          
T        Si     0.622833333333     0.215450000000     0.030850000000     0          
T        Si     0.404866666667     0.437350000000     0.325100000000     0          
T        Si     0.416466666667     0.436650000000     0.078800000000     0          
T        Si     0.377166666667     0.375450000000     0.344500000000     0          
T        Si     0.377133333333     0.285250000000     0.030900000000     0          
T        Si     0.377166666667     0.284550000000     0.280850000000     0          
T        Si     0.571533333333     0.312650000000     0.075100000000     0          
T        Si     0.583133333333     0.313350000000     0.328800000000     0          
T        Si     0.543833333333     0.374550000000     0.094500000000     0          
T        Si     0.543800000000     0.464750000000     0.280900000000     0          
T        Si     0.543833333333     0.465450000000     0.030850000000     0          
T        Si     0.543900000000     0.453200000000     0.375000000000     0          
T        Si     0.543900000000     0.473700000000     0.125000000000     0          
T        Si     0.500000000000     0.276050000000     0.094400000000     0          
T        Si     0.500000000000     0.297100000000     0.344450000000     0          
T        Si     0.428466666667     0.187350000000     0.325100000000     0          
T        Si     0.416866666667     0.186650000000     0.078800000000     0          
T        Si     0.456166666667     0.125450000000     0.344500000000     0          
T        Si     0.456200000000     0.035250000000     0.030900000000     0          
T        Si     0.456166666667     0.034550000000     0.280850000000     0          
T        Si     0.456100000000     0.046800000000     0.125000000000     0          
T        Si     0.456100000000     0.026300000000     0.375000000000     0          
T        Si     0.500000000000     0.223950000000     0.344400000000     0          
T        Si     0.500000000000     0.202900000000     0.094450000000     0          
T        Si     0.571533333333     0.187350000000     0.424900000000     0          
T        Si     0.583133333333     0.186650000000     0.171200000000     0          
T        Si     0.543833333333     0.125450000000     0.405500000000     0          
T        Si     0.543800000000     0.035250000000     0.219100000000     0          
T        Si     0.543833333333     0.034550000000     0.469150000000     0          
T        Si     0.543900000000     0.046800000000     0.125000000000     0          
T        Si     0.543900000000     0.026300000000     0.375000000000     0          
T        Si     0.500000000000     0.223950000000     0.405600000000     0          
T        Si     0.500000000000     0.202900000000     0.155550000000     0          
T        Si     0.428466666667     0.312650000000     0.174900000000     0          
T        Si     0.416866666667     0.313350000000     0.421200000000     0          
T        Si     0.456166666667     0.374550000000     0.155500000000     0          
T        Si     0.456200000000     0.464750000000     0.469100000000     0          
T        Si     0.456166666667     0.465450000000     0.219150000000     0          
T        Si     0.456100000000     0.453200000000     0.375000000000     0          
T        Si     0.456100000000     0.473700000000     0.125000000000     0          
T        Si     0.500000000000     0.276050000000     0.155600000000     0          
T        Si     0.500000000000     0.297100000000     0.405550000000     0          
T        Si     0.428466666667     0.187350000000     0.424900000000     0          
T        Si     0.416866666667     0.186650000000     0.171200000000     0          
T        Si     0.456166666667     0.125450000000     0.405500000000     0          
T        Si     0.456200000000     0.035250000000     0.219100000000     0          
T        Si     0.456166666667     0.034550000000     0.469150000000     0          
T        Si     0.571533333333     0.312650000000     0.174900000000     0          
T        Si     0.583133333333     0.313350000000     0.421200000000     0          
T        Si     0.543833333333     0.374550000000     0.155500000000     0          
T        Si     0.543800000000     0.464750000000     0.469100000000     0          
T        Si     0.543833333333     0.465450000000     0.219150000000     0          
T        Si     0.428466666667     0.312650000000     0.075100000000     0          
T        Si     0.416866666667     0.313350000000     0.328800000000     0          
T        Si     0.456166666667     0.374550000000     0.094500000000     0          
T        Si     0.456200000000     0.464750000000     0.280900000000     0          
T        Si     0.456166666667     0.465450000000     0.030850000000     0          
T        Si     0.571533333333     0.187350000000     0.325100000000     0          
T        Si     0.583133333333     0.186650000000     0.078800000000     0          
T        Si     0.543833333333     0.125450000000     0.344500000000     0          
T        Si     0.543800000000     0.035250000000     0.030900000000     0          
T        Si     0.543833333333     0.034550000000     0.280850000000     0          
T        Si     0.404866666667     0.062650000000     0.575100000000     0          
T        Si     0.416466666667     0.063350000000     0.828800000000     0          
T        Si     0.377166666667     0.124550000000     0.594500000000     0          
T        Si     0.377133333333     0.214750000000     0.780900000000     0          
T        Si     0.377166666667     0.215450000000     0.530850000000     0          
T        Si     0.377233333333     0.203200000000     0.875000000000     0          
T        Si     0.377233333333     0.223700000000     0.625000000000     0          
T        Si     0.333333333333     0.026050000000     0.594400000000     0          
T        Si     0.333333333333     0.047100000000     0.844450000000     0          
T        Si     0.595133333333     0.437350000000     0.825100000000     0          
T        Si     0.583533333333     0.436650000000     0.578800000000     0          
T        Si     0.622833333333     0.375450000000     0.844500000000     0          
T        Si     0.622866666667     0.285250000000     0.530900000000     0          
T        Si     0.622833333333     0.284550000000     0.780850000000     0          
T        Si     0.622766666667     0.296800000000     0.625000000000     0          
T        Si     0.622766666667     0.276300000000     0.875000000000     0          
T        Si     0.333333333333     0.473950000000     0.844400000000     0          
T        Si     0.333333333333     0.452900000000     0.594450000000     0          
T        Si     0.404866666667     0.437350000000     0.924900000000     0          
T        Si     0.416466666667     0.436650000000     0.671200000000     0          
T        Si     0.377166666667     0.375450000000     0.905500000000     0          
T        Si     0.377133333333     0.285250000000     0.719100000000     0          
T        Si     0.377166666667     0.284550000000     0.969150000000     0          
T        Si     0.377233333333     0.296800000000     0.625000000000     0          
T        Si     0.377233333333     0.276300000000     0.875000000000     0          
T        Si     0.333333333333     0.473950000000     0.905600000000     0          
T        Si     0.333333333333     0.452900000000     0.655550000000     0          
T        Si     0.595133333333     0.062650000000     0.674900000000     0          
T        Si     0.583533333333     0.063350000000     0.921200000000     0          
T        Si     0.622833333333     0.124550000000     0.655500000000     0          
T        Si     0.622866666667     0.214750000000     0.969100000000     0          
T        Si     0.622833333333     0.215450000000     0.719150000000     0          
T        Si     0.622766666667     0.203200000000     0.875000000000     0          
T        Si     0.622766666667     0.223700000000     0.625000000000     0          
T        Si     0.333333333333     0.026050000000     0.655600000000     0          
T        Si     0.333333333333     0.047100000000     0.905550000000     0          
T        Si     0.595133333333     0.437350000000     0.924900000000     0          
T        Si     0.583533333333     0.436650000000     0.671200000000     0          
T        Si     0.622833333333     0.375450000000     0.905500000000     0          
T        Si     0.622866666667     0.285250000000     0.719100000000     0          
T        Si     0.622833333333     0.284550000000     0.969150000000     0          
T        Si     0.404866666667     0.062650000000     0.674900000000     0          
T        Si     0.416466666667     0.063350000000     0.921200000000     0          
T        Si     0.377166666667     0.124550000000     0.655500000000     0          
T        Si     0.377133333333     0.214750000000     0.969100000000     0          
T        Si     0.377166666667     0.215450000000     0.719150000000     0          
T        Si     0.595133333333     0.062650000000     0.575100000000     0          
T        Si     0.583533333333     0.063350000000     0.828800000000     0          
T        Si     0.622833333333     0.124550000000     0.594500000000     0          
T        Si     0.622866666667     0.214750000000     0.780900000000     0          
T        Si     0.622833333333     0.215450000000     0.530850000000     0          
T        Si     0.404866666667     0.437350000000     0.825100000000     0          
T        Si     0.416466666667     0.436650000000     0.578800000000     0          
T        Si     0.377166666667     0.375450000000     0.844500000000     0          
T        Si     0.377133333333     0.285250000000     0.530900000000     0          
T        Si     0.377166666667     0.284550000000     0.780850000000     0          
T        Si     0.571533333333     0.312650000000     0.575100000000     0          
T        Si     0.583133333333     0.313350000000     0.828800000000     0          
T        Si     0.543833333333     0.374550000000     0.594500000000     0          
T        Si     0.543800000000     0.464750000000     0.780900000000     0          
T        Si     0.543833333333     0.465450000000     0.530850000000     0          
T        Si     0.543900000000     0.453200000000     0.875000000000     0          
T        Si     0.543900000000     0.473700000000     0.625000000000     0          
T        Si     0.500000000000     0.276050000000     0.594400000000     0          
T        Si     0.500000000000     0.297100000000     0.844450000000     0          
T        Si     0.428466666667     0.187350000000     0.825100000000     0          
T        Si     0.416866666667     0.186650000000     0.578800000000     0          
T        Si     0.456166666667     0.125450000000     0.844500000000     0          
T        Si     0.456200000000     0.035250000000     0.530900000000     0          
T        Si     0.456166666667     0.034550000000     0.780850000000     0          
T        Si     0.456100000000     0.046800000000     0.625000000000     0          
T        Si     0.456100000000     0.026300000000     0.875000000000     0          
T        Si     0.500000000000     0.223950000000     0.844400000000     0          
T        Si     0.500000000000     0.202900000000     0.594450000000     0          
T        Si     0.571533333333     0.187350000000     0.924900000000     0          
T        Si     0.583133333333     0.186650000000     0.671200000000     0          
T        Si     0.543833333333     0.125450000000     0.905500000000     0          
T        Si     0.543800000000     0.035250000000     0.719100000000     0          
T        Si     0.543833333333     0.034550000000     0.969150000000     0          
T        Si     0.543900000000     0.046800000000     0.625000000000     0          
T        Si     0.543900000000     0.026300000000     0.875000000000     0          
T        Si     0.500000000000     0.223950000000     0.905600000000     0          
T        Si     0.500000000000     0.202900000000     0.655550000000     0          
T        Si     0.428466666667     0.312650000000     0.674900000000     0          
T        Si     0.416866666667     0.313350000000     0.921200000000     0          
T        Si     0.456166666667     0.374550000000     0.655500000000     0          
T        Si     0.456200000000     0.464750000000     0.969100000000     0          
T        Si     0.456166666667     0.465450000000     0.719150000000     0          
T        Si     0.456100000000     0.453200000000     0.875000000000     0          
T        Si     0.456100000000     0.473700000000     0.625000000000     0          
T        Si     0.500000000000     0.276050000000     0.655600000000     0          
T        Si     0.500000000000     0.297100000000     0.905550000000     0          
T        Si     0.428466666667     0.187350000000     0.924900000000     0          
T        Si     0.416866666667     0.186650000000     0.671200000000     0          
T        Si     0.456166666667     0.125450000000     0.905500000000     0          
T        Si     0.456200000000     0.035250000000     0.719100000000     0          
T        Si     0.456166666667     0.034550000000     0.969150000000     0          
T        Si     0.571533333333     0.312650000000     0.674900000000     0          
T        Si     0.583133333333     0.313350000000     0.921200000000     0          
T        Si     0.543833333333     0.374550000000     0.655500000000     0          
T        Si     0.543800000000     0.464750000000     0.969100000000     0          
T        Si     0.543833333333     0.465450000000     0.719150000000     0          
T        Si     0.428466666667     0.312650000000     0.575100000000     0          
T        Si     0.416866666667     0.313350000000     0.828800000000     0          
T        Si     0.456166666667     0.374550000000     0.594500000000     0          
T        Si     0.456200000000     0.464750000000     0.780900000000     0          
T        Si     0.456166666667     0.465450000000     0.530850000000     0          
T        Si     0.571533333333     0.187350000000     0.825100000000     0          
T        Si     0.583133333333     0.186650000000     0.578800000000     0          
T        Si     0.543833333333     0.125450000000     0.844500000000     0          
T        Si     0.543800000000     0.035250000000     0.530900000000     0          
T        Si     0.543833333333     0.034550000000     0.780850000000     0          
T        Si     0.404866666667     0.562650000000     0.075100000000     0          
T        Si     0.416466666667     0.563350000000     0.328800000000     0          
T        Si     0.377166666667     0.624550000000     0.094500000000     0          
T        Si     0.377133333333     0.714750000000     0.280900000000     0          
T        Si     0.377166666667     0.715450000000     0.030850000000     0          
T        Si     0.377233333333     0.703200000000     0.375000000000     0          
T        Si     0.377233333333     0.723700000000     0.125000000000     0          
T        Si     0.333333333333     0.526050000000     0.094400000000     0          
T        Si     0.333333333333     0.547100000000     0.344450000000     0          
T        Si     0.595133333333     0.937350000000     0.325100000000     0          
T        Si     0.583533333333     0.936650000000     0.078800000000     0          
T        Si     0.622833333333     0.875450000000     0.344500000000     0          
T        Si     0.622866666667     0.785250000000     0.030900000000     0          
T        Si     0.622833333333     0.784550000000     0.280850000000     0          
T        Si     0.622766666667     0.796800000000     0.125000000000     0          
T        Si     0.622766666667     0.776300000000     0.375000000000     0          
T        Si     0.333333333333     0.973950000000     0.344400000000     0          
T        Si     0.333333333333     0.952900000000     0.094450000000     0          
T        Si     0.404866666667     0.937350000000     0.424900000000     0          
T        Si     0.416466666667     0.936650000000     0.171200000000     0          
T        Si     0.377166666667     0.875450000000     0.405500000000     0          
T        Si     0.377133333333     0.785250000000     0.219100000000     0          
T        Si     0.377166666667     0.784550000000     0.469150000000     0          
T        Si     0.377233333333     0.796800000000     0.125000000000     0          
T        Si     0.377233333333     0.776300000000     0.375000000000     0          
T        Si     0.333333333333     0.973950000000     0.405600000000     0          
T        Si     0.333333333333     0.952900000000     0.155550000000     0          
T        Si     0.595133333333     0.562650000000     0.174900000000     0          
T        Si     0.583533333333     0.563350000000     0.421200000000     0          
T        Si     0.622833333333     0.624550000000     0.155500000000     0          
T        Si     0.622866666667     0.714750000000     0.469100000000     0          
T        Si     0.622833333333     0.715450000000     0.219150000000     0          
T        Si     0.622766666667     0.703200000000     0.375000000000     0          
T        Si     0.622766666667     0.723700000000     0.125000000000     0          
T        Si     0.333333333333     0.526050000000     0.155600000000     0          
T        Si     0.333333333333     0.547100000000     0.405550000000     0          
T        Si     0.595133333333     0.937350000000     0.424900000000     0          
T        Si     0.583533333333     0.936650000000     0.171200000000     0          
T        Si     0.622833333333     0.875450000000     0.405500000000     0          
T        Si     0.622866666667     0.785250000000     0.219100000000     0          
T        Si     0.622833333333     0.784550000000     0.469150000000     0          
T        Si     0.404866666667     0.562650000000     0.174900000000     0          
T        Si     0.416466666667     0.563350000000     0.421200000000     0          
T        Si     0.377166666667     0.624550000000     0.155500000000     0          
T        Si     0.377133333333     0.714750000000     0.469100000000     0          
T        Si     0.377166666667     0.715450000000     0.219150000000     0          
T        Si     0.595133333333     0.562650000000     0.075100000000     0          
T        Si     0.583533333333     0.563350000000     0.328800000000     0          
T        Si     0.622833333333     0.624550000000     0.094500000000     0          
T        Si     0.622866666667     0.714750000000     0.280900000000     0          
T        Si     0.622833333333     0.715450000000     0.030850000000     0          
T        Si     0.404866666667     0.937350000000     0.325100000000     0          
T        Si     0.416466666667     0.936650000000     0.078800000000     0          
T        Si     0.377166666667     0.875450000000     0.344500000000     0          
T        Si     0.377133333333     0.785250000000     0.030900000000     0          
T        Si     0.377166666667     0.784550000000     0.280850000000     0          
T        Si     0.571533333333     0.812650000000     0.075100000000     0          
T        Si     0.583133333333     0.813350000000     0.328800000000     0          
T        Si     0.543833333333     0.874550000000     0.094500000000     0          
T        Si     0.543800000000     0.964750000000     0.280900000000     0          
T        Si     0.543833333333     0.965450000000     0.030850000000     0          
T        Si     0.543900000000     0.953200000000     0.375000000000     0          
T        Si     0.543900000000     0.973700000000     0.125000000000     0          
T        Si     0.500000000000     0.776050000000     0.094400000000     0          
T        Si     0.500000000000     0.797100000000     0.344450000000     0          
T        Si     0.428466666667     0.687350000000     0.325100000000     0          
T        Si     0.416866666667     0.686650000000     0.078800000000     0          
T        Si     0.456166666667     0.625450000000     0.344500000000     0          
T        Si     0.456200000000     0.535250000000     0.030900000000     0          
T        Si     0.456166666667     0.534550000000     0.280850000000     0          
T        Si     0.456100000000     0.546800000000     0.125000000000     0          
T        Si     0.456100000000     0.526300000000     0.375000000000     0          
T        Si     0.500000000000     0.723950000000     0.344400000000     0          
T        Si     0.500000000000     0.702900000000     0.094450000000     0          
T        Si     0.571533333333     0.687350000000     0.424900000000     0          
T        Si     0.583133333333     0.686650000000     0.171200000000     0          
T        Si     0.543833333333     0.625450000000     0.405500000000     0          
T        Si     0.543800000000     0.535250000000     0.219100000000     0          
T        Si     0.543833333333     0.534550000000     0.469150000000     0          
T        Si     0.543900000000     0.546800000000     0.125000000000     0          
T        Si     0.543900000000     0.526300000000     0.375000000000     0          
T        Si     0.500000000000     0.723950000000     0.405600000000     0          
T        Si     0.500000000000     0.702900000000     0.155550000000     0          
T        Si     0.428466666667     0.812650000000     0.174900000000     0          
T        Si     0.416866666667     0.813350000000     0.421200000000     0          
T        Si     0.456166666667     0.874550000000     0.155500000000     0          
T        Si     0.456200000000     0.964750000000     0.469100000000     0          
T        Si     0.456166666667     0.965450000000     0.219150000000     0          
T        Si     0.456100000000     0.953200000000     0.375000000000     0          
T        Si     0.456100000000     0.973700000000     0.125000000000     0          
T        Si     0.500000000000     0.776050000000     0.155600000000     0          
T        Si     0.500000000000     0.797100000000     0.405550000000     0          
T        Si     0.428466666667     0.687350000000     0.424900000000     0          
T        Si     0.416866666667     0.686650000000     0.171200000000     0          
T        Si     0.456166666667     0.625450000000     0.405500000000     0          
T        Si     0.456200000000     0.535250000000     0.219100000000     0          
T        Si     0.456166666667     0.534550000000     0.469150000000     0          
T        Si     0.571533333333     0.812650000000     0.174900000000     0          
T        Si     0.583133333333     0.813350000000     0.421200000000     0          
T        Si     0.543833333333     0.874550000000     0.155500000000     0          
T        Si     0.543800000000     0.964750000000     0.469100000000     0          
T        Si     0.543833333333     0.965450000000     0.219150000000     0          
T        Si     0.428466666667     0.812650000000     0.075100000000     0          
T        Si     0.416866666667     0.813350000000     0.328800000000     0          
T        Si     0.456166666667     0.874550000000     0.094500000000     0          
T        Si     0.456200000000     0.964750000000     0.280900000000     0          
T        Si     0.456166666667     0.965450000000     0.030850000000     0          
T        Si     0.571533333333     0.687350000000     0.325100000000     0          
T        Si     0.583133333333     0.686650000000     0.078800000000     0          
T        Si     0.543833333333     0.625450000000     0.344500000000     0          
T        Si     0.543800000000     0.535250000000     0.030900000000     0          
T        Si     0.543833333333     0.534550000000     0.280850000000     0          
T        Si     0.404866666667     0.562650000000     0.575100000000     0          
T        Si     0.416466666667     0.563350000000     0.828800000000     0          
T        Si     0.377166666667     0.624550000000     0.594500000000     0          
T        Si     0.377133333333     0.714750000000     0.780900000000     0          
T        Si     0.377166666667     0.715450000000     0.530850000000     0          
T        Si     0.377233333333     0.703200000000     0.875000000000     0          
T        Si     0.377233333333     0.723700000000     0.625000000000     0          
T        Si     0.333333333333     0.526050000000     0.594400000000     0          
T        Si     0.333333333333     0.547100000000     0.844450000000     0          
T        Si     0.595133333333     0.937350000000     0.825100000000     0          
T        Si     0.583533333333     0.936650000000     0.578800000000     0          
T        Si     0.622833333333     0.875450000000     0.844500000000     0          
T        Si     0.622866666667     0.785250000000     0.530900000000     0          
T        Si     0.622833333333     0.784550000000     0.780850000000     0          
T        Si     0.622766666667     0.796800000000     0.625000000000     0          
T        Si     0.622766666667     0.776300000000     0.875000000000     0          
T        Si     0.333333333333     0.973950000000     0.844400000000     0          
T        Si     0.333333333333     0.952900000000     0.594450000000     0          
T        Si     0.404866666667     0.937350000000     0.924900000000     0          
T        Si     0.416466666667     0.936650000000     0.671200000000     0          
T        Si     0.377166666667     0.875450000000     0.905500000000     0          
T        Si     0.377133333333     0.785250000000     0.719100000000     0          
T        Si     0.377166666667     0.784550000000     0.969150000000     0          
T        Si     0.377233333333     0.796800000000     0.625000000000     0          
T        Si     0.377233333333     0.776300000000     0.875000000000     0          
T        Si     0.333333333333     0.973950000000     0.905600000000     0          
T        Si     0.333333333333     0.952900000000     0.655550000000     0          
T        Si     0.595133333333     0.562650000000     0.674900000000     0          
T        Si     0.583533333333     0.563350000000     0.921200000000     0          
T        Si     0.622833333333     0.624550000000     0.655500000000     0          
T        Si     0.622866666667     0.714750000000     0.969100000000     0          
T        Si     0.622833333333     0.715450000000     0.719150000000     0          
T        Si     0.622766666667     0.703200000000     0.875000000000     0          
T        Si     0.622766666667     0.723700000000     0.625000000000     0          
T        Si     0.333333333333     0.526050000000     0.655600000000     0          
T        Si     0.333333333333     0.547100000000     0.905550000000     0          
T        Si     0.595133333333     0.937350000000     0.924900000000     0          
T        Si     0.583533333333     0.936650000000     0.671200000000     0          
T        Si     0.622833333333     0.875450000000     0.905500000000     0          
T        Si     0.622866666667     0.785250000000     0.719100000000     0          
T        Si     0.622833333333     0.784550000000     0.969150000000     0          
T        Si     0.404866666667     0.562650000000     0.674900000000     0          
T        Si     0.416466666667     0.563350000000     0.921200000000     0          
T        Si     0.377166666667     0.624550000000     0.655500000000     0          
T        Si     0.377133333333     0.714750000000     0.969100000000     0          
T        Si     0.377166666667     0.715450000000     0.719150000000     0          
T        Si     0.595133333333     0.562650000000     0.575100000000     0          
T        Si     0.583533333333     0.563350000000     0.828800000000     0          
T        Si     0.622833333333     0.624550000000     0.594500000000     0          
T        Si     0.622866666667     0.714750000000     0.780900000000     0          
T        Si     0.622833333333     0.715450000000     0.530850000000     0          
T        Si     0.404866666667     0.937350000000     0.825100000000     0          
T        Si     0.416466666667     0.936650000000     0.578800000000     0          
T        Si     0.377166666667     0.875450000000     0.844500000000     0          
T        Si     0.377133333333     0.785250000000     0.530900000000     0          
T        Si     0.377166666667     0.784550000000     0.780850000000     0          
T        Si     0.571533333333     0.812650000000     0.575100000000     0          
T        Si     0.583133333333     0.813350000000     0.828800000000     0          
T        Si     0.543833333333     0.874550000000     0.594500000000     0          
T        Si     0.543800000000     0.964750000000     0.780900000000     0          
T        Si     0.543833333333     0.965450000000     0.530850000000     0          
T        Si     0.543900000000     0.953200000000     0.875000000000     0          
T        Si     0.543900000000     0.973700000000     0.625000000000     0          
T        Si     0.500000000000     0.776050000000     0.594400000000     0          
T        Si     0.500000000000     0.797100000000     0.844450000000     0          
T        Si     0.428466666667     0.687350000000     0.825100000000     0          
T        Si     0.416866666667     0.686650000000     0.578800000000     0          
T        Si     0.456166666667     0.625450000000     0.844500000000     0          
T        Si     0.456200000000     0.535250000000     0.530900000000     0          
T        Si     0.456166666667     0.534550000000     0.780850000000     0          
T        Si     0.456100000000     0.546800000000     0.625000000000     0          
T        Si     0.456100000000     0.526300000000     0.875000000000     0          
T        Si     0.500000000000     0.723950000000     0.844400000000     0          
T        Si     0.500000000000     0.702900000000     0.594450000000     0          
T        Si     0.571533333333     0.687350000000     0.924900000000     0          
T        Si     0.583133333333     0.686650000000     0.671200000000     0          
T        Si     0.543833333333     0.625450000000     0.905500000000     0          
T        Si     0.543800000000     0.535250000000     0.719100000000     0          
T        Si     0.543833333333     0.534550000000     0.969150000000     0          
T        Si     0.543900000000     0.546800000000     0.625000000000     0          
T        Si     0.543900000000     0.526300000000     0.875000000000     0          
T        Si     0.500000000000     0.723950000000     0.905600000000     0          
T        Si     0.500000000000     0.702900000000     0.655550000000     0          
T        Si     0.428466666667     0.812650000000     0.674900000000     0          
T        Si     0.416866666667     0.813350000000     0.921200000000     0          
T        Si     0.456166666667     0.874550000000     0.655500000000     0          
T        Si     0.456200000000     0.964750000000     0.969100000000     0          
T        Si     0.456166666667     0.965450000000     0.719150000000     0          
T        Si     0.456100000000     0.953200000000     0.875000000000     0          
T        Si     0.456100000000     0.973700000000     0.625000000000     0          
T        Si     0.500000000000     0.776050000000     0.655600000000     0          
T        Si     0.500000000000     0.797100000000     0.905550000000     0          
T        Si     0.428466666667     0.687350000000     0.924900000000     0          
T        Si     0.416866666667     0.686650000000     0.671200000000     0          
T        Si     0.456166666667     0.625450000000     0.905500000000     0          
T        Si     0.456200000000     0.535250000000     0.719100000000     0          
T        Si     0.456166666667     0.534550000000     0.969150000000     0          
T        Si     0.571533333333     0.812650000000     0.674900000000     0          
T        Si     0.583133333333     0.813350000000     0.921200000000     0          
T        Si     0.543833333333     0.874550000000     0.655500000000     0          
T        Si     0.543800000000     0.964750000000     0.969100000000     0          
T        Si     0.543833333333     0.965450000000     0.719150000000     0          
T        Si     0.428466666667     0.812650000000     0.575100000000     0          
T        Si     0.416866666667     0.813350000000     0.828800000000     0          
T        Si     0.456166666667     0.874550000000     0.594500000000     0          
T        Si     0.456200000000     0.964750000000     0.780900000000     0          
T        Si     0.456166666667     0.965450000000     0.530850000000     0          
T        Si     0.571533333333     0.687350000000     0.825100000000     0          
T        Si     0.583133333333     0.686650000000     0.578800000000     0          
T        Si     0.543833333333     0.625450000000     0.844500000000     0          
T        Si     0.543800000000     0.535250000000     0.530900000000     0          
T        Si     0.543833333333     0.534550000000     0.780850000000     0          
T        Si     0.738200000000     0.062650000000     0.075100000000     0          
T        Si     0.749800000000     0.063350000000     0.328800000000     0          
T        Si     0.710500000000     0.124550000000     0.094500000000     0          
T        Si     0.710466666667     0.214750000000     0.280900000000     0          
T        Si     0.710500000000     0.215450000000     0.030850000000     0          
T        Si     0.710566666667     0.203200000000     0.375000000000     0          
T        Si     0.710566666667     0.223700000000     0.125000000000     0          
T        Si     0.666666666667     0.026050000000     0.094400000000     0          
T        Si     0.666666666667     0.047100000000     0.344450000000     0          
T        Si     0.928466666667     0.437350000000     0.325100000000     0          
T        Si     0.916866666667     0.436650000000     0.078800000000     0          
T        Si     0.956166666667     0.375450000000     0.344500000000     0          
T        Si     0.956200000000     0.285250000000     0.030900000000     0          
T        Si     0.956166666667     0.284550000000     0.280850000000     0          
T        Si     0.956100000000     0.296800000000     0.125000000000     0          
T        Si     0.956100000000     0.276300000000     0.375000000000     0          
T        Si     0.666666666667     0.473950000000     0.344400000000     0          
T        Si     0.666666666667     0.452900000000     0.094450000000     0          
T        Si     0.738200000000     0.437350000000     0.424900000000     0          
T        Si     0.749800000000     0.436650000000     0.171200000000     0          
T        Si     0.710500000000     0.375450000000     0.405500000000     0          
T        Si     0.710466666667     0.285250000000     0.219100000000     0          
T        Si     0.710500000000     0.284550000000     0.469150000000     0          
T        Si     0.710566666667     0.296800000000     0.125000000000     0          
T        Si     0.710566666667     0.276300000000     0.375000000000     0          
T        Si     0.666666666667     0.473950000000     0.405600000000     0          
T        Si     0.666666666667     0.452900000000     0.155550000000     0          
T        Si     0.928466666667     0.062650000000     0.174900000000     0          
T        Si     0.916866666667     0.063350000000     0.421200000000     0          
T        Si     0.956166666667     0.124550000000     0.155500000000     0          
T        Si     0.956200000000     0.214750000000     0.469100000000     0          
T        Si     0.956166666667     0.215450000000     0.219150000000     0          
T        Si     0.956100000000     0.203200000000     0.375000000000     0          
T        Si     0.956100000000     0.223700000000     0.125000000000     0          
T        Si     0.666666666667     0.026050000000     0.155600000000     0          
T        Si     0.666666666667     0.047100000000     0.405550000000     0          
T        Si     0.928466666667     0.437350000000     0.424900000000     0          
T        Si     0.916866666667     0.436650000000     0.171200000000     0          
T        Si     0.956166666667     0.375450000000     0.405500000000     0          
T        Si     0.956200000000     0.285250000000     0.219100000000     0          
T        Si     0.956166666667     0.284550000000     0.469150000000     0          
T        Si     0.738200000000     0.062650000000     0.174900000000     0          
T        Si     0.749800000000     0.063350000000     0.421200000000     0          
T        Si     0.710500000000     0.124550000000     0.155500000000     0          
T        Si     0.710466666667     0.214750000000     0.469100000000     0          
T        Si     0.710500000000     0.215450000000     0.219150000000     0          
T        Si     0.928466666667     0.062650000000     0.075100000000     0          
T        Si     0.916866666667     0.063350000000     0.328800000000     0          
T        Si     0.956166666667     0.124550000000     0.094500000000     0          
T        Si     0.956200000000     0.214750000000     0.280900000000     0          
T        Si     0.956166666667     0.215450000000     0.030850000000     0          
T        Si     0.738200000000     0.437350000000     0.325100000000     0          
T        Si     0.749800000000     0.436650000000     0.078800000000     0          
T        Si     0.710500000000     0.375450000000     0.344500000000     0          
T        Si     0.710466666667     0.285250000000     0.030900000000     0          
T        Si     0.710500000000     0.284550000000     0.280850000000     0          
T        Si     0.904866666667     0.312650000000     0.075100000000     0          
T        Si     0.916466666667     0.313350000000     0.328800000000     0          
T        Si     0.877166666667     0.374550000000     0.094500000000     0          
T        Si     0.877133333333     0.464750000000     0.280900000000     0          
T        Si     0.877166666667     0.465450000000     0.030850000000     0          
T        Si     0.877233333333     0.453200000000     0.375000000000     0          
T        Si     0.877233333333     0.473700000000     0.125000000000     0          
T        Si     0.833333333333     0.276050000000     0.094400000000     0          
T        Si     0.833333333333     0.297100000000     0.344450000000     0          
T        Si     0.761800000000     0.187350000000     0.325100000000     0          
T        Si     0.750200000000     0.186650000000     0.078800000000     0          
T        Si     0.789500000000     0.125450000000     0.344500000000     0          
T        Si     0.789533333333     0.035250000000     0.030900000000     0          
T        Si     0.789500000000     0.034550000000     0.280850000000     0          
T        Si     0.789433333333     0.046800000000     0.125000000000     0          
T        Si     0.789433333333     0.026300000000     0.375000000000     0          
T        Si     0.833333333333     0.223950000000     0.344400000000     0          
T        Si     0.833333333333     0.202900000000     0.094450000000     0          
T        Si     0.904866666667     0.187350000000     0.424900000000     0          
T        Si     0.916466666667     0.186650000000     0.171200000000     0          
T        Si     0.877166666667     0.125450000000     0.405500000000     0          
T        Si     0.877133333333     0.035250000000     0.219100000000     0          
T        Si     0.877166666667     0.034550000000     0.469150000000     0          
T        Si     0.877233333333     0.046800000000     0.125000000000     0          
T        Si     0.877233333333     0.026300000000     0.375000000000     0          
T        Si     0.833333333333     0.223950000000     0.405600000000     0          
T        Si     0.833333333333     0.202900000000     0.155550000000     0          
T        Si     0.761800000000     0.312650000000     0.174900000000     0          
T        Si     0.750200000000     0.313350000000     0.421200000000     0          
T        Si     0.789500000000     0.374550000000     0.155500000000     0          
T        Si     0.789533333333     0.464750000000     0.469100000000     0          
T        Si     0.789500000000     0.465450000000     0.219150000000     0          
T        Si     0.789433333333     0.453200000000     0.375000000000     0          
T        Si     0.789433333333     0.473700000000     0.125000000000     0          
T        Si     0.833333333333     0.276050000000     0.155600000000     0          
T        Si     0.833333333333     0.297100000000     0.405550000000     0          
T        Si     0.761800000000     0.187350000000     0.424900000000     0          
T        Si     0.750200000000     0.186650000000     0.171200000000     0          
T        Si     0.789500000000     0.125450000000     0.405500000000     0          
T        Si     0.789533333333     0.035250000000     0.219100000000     0          
T        Si     0.789500000000     0.034550000000     0.469150000000     0          
T        Si     0.904866666667     0.312650000000     0.174900000000     0          
T        Si     0.916466666667     0.313350000000     0.421200000000     0          
T        Si     0.877166666667     0.374550000000     0.155500000000     0          
T        Si     0.877133333333     0.464750000000     0.469100000000     0          
T        Si     0.877166666667     0.465450000000     0.219150000000     0          
T        Si     0.761800000000     0.312650000000     0.075100000000     0          
T        Si     0.750200000000     0.313350000000     0.328800000000     0          
T        Si     0.789500000000     0.374550000000     0.094500000000     0          
T        Si     0.789533333333     0.464750000000     0.280900000000     0          
T        Si     0.789500000000     0.465450000000     0.030850000000     0          
T        Si     0.904866666667     0.187350000000     0.325100000000     0          
T        Si     0.916466666667     0.186650000000     0.078800000000     0          
T        Si     0.877166666667     0.125450000000     0.344500000000     0          
T        Si     0.877133333333     0.035250000000     0.030900000000     0          
T        Si     0.877166666667     0.034550000000     0.280850000000     0          
T        Si     0.738200000000     0.062650000000     0.575100000000     0          
T        Si     0.749800000000     0.063350000000     0.828800000000     0          
T        Si     0.710500000000     0.124550000000     0.594500000000     0          
T        Si     0.710466666667     0.214750000000     0.780900000000     0          
T        Si     0.710500000000     0.215450000000     0.530850000000     0          
T        Si     0.710566666667     0.203200000000     0.875000000000     0          
T        Si     0.710566666667     0.223700000000     0.625000000000     0          
T        Si     0.666666666667     0.026050000000     0.594400000000     0          
T        Si     0.666666666667     0.047100000000     0.844450000000     0          
T        Si     0.928466666667     0.437350000000     0.825100000000     0          
T        Si     0.916866666667     0.436650000000     0.578800000000     0          
T        Si     0.956166666667     0.375450000000     0.844500000000     0          
T        Si     0.956200000000     0.285250000000     0.530900000000     0          
T        Si     0.956166666667     0.284550000000     0.780850000000     0          
T        Si     0.956100000000     0.296800000000     0.625000000000     0          
T        Si     0.956100000000     0.276300000000     0.875000000000     0          
T        Si     0.666666666667     0.473950000000     0.844400000000     0          
T        Si     0.666666666667     0.452900000000     0.594450000000     0          
T        Si     0.738200000000     0.437350000000     0.924900000000     0          
T        Si     0.749800000000     0.436650000000     0.671200000000     0          
T        Si     0.710500000000     0.375450000000     0.905500000000     0          
T        Si     0.710466666667     0.285250000000     0.719100000000     0          
T        Si     0.710500000000     0.284550000000     0.969150000000     0          
T        Si     0.710566666667     0.296800000000     0.625000000000     0          
T        Si     0.710566666667     0.276300000000     0.875000000000     0          
T        Si     0.666666666667     0.473950000000     0.905600000000     0          
T        Si     0.666666666667     0.452900000000     0.655550000000     0          
T        Si     0.928466666667     0.062650000000     0.674900000000     0          
T        Si     0.916866666667     0.063350000000     0.921200000000     0          
T        Si     0.956166666667     0.124550000000     0.655500000000     0          
T        Si     0.956200000000     0.214750000000     0.969100000000     0          
T        Si     0.956166666667     0.215450000000     0.719150000000     0          
T        Si     0.956100000000     0.203200000000     0.875000000000     0          
T        Si     0.956100000000     0.223700000000     0.625000000000     0          
T        Si     0.666666666667     0.026050000000     0.655600000000     0          
T        Si     0.666666666667     0.047100000000     0.905550000000     0          
T        Si     0.928466666667     0.437350000000     0.924900000000     0          
T        Si     0.916866666667     0.436650000000     0.671200000000     0          
T        Si     0.956166666667     0.375450000000     0.905500000000     0          
T        Si     0.956200000000     0.285250000000     0.719100000000     0          
T        Si     0.956166666667     0.284550000000     0.969150000000     0          
T        Si     0.738200000000     0.062650000000     0.674900000000     0          
T        Si     0.749800000000     0.063350000000     0.921200000000     0          
T        Si     0.710500000000     0.124550000000     0.655500000000     0          
T        Si     0.710466666667     0.214750000000     0.969100000000     0          
T        Si     0.710500000000     0.215450000000     0.719150000000     0          
T        Si     0.928466666667     0.062650000000     0.575100000000     0          
T        Si     0.916866666667     0.063350000000     0.828800000000     0          
T        Si     0.956166666667     0.124550000000     0.594500000000     0          
T        Si     0.956200000000     0.214750000000     0.780900000000     0          
T        Si     0.956166666667     0.215450000000     0.530850000000     0          
T        Si     0.738200000000     0.437350000000     0.825100000000     0          
T        Si     0.749800000000     0.436650000000     0.578800000000     0          
T        Si     0.710500000000     0.375450000000     0.844500000000     0          
T        Si     0.710466666667     0.285250000000     0.530900000000     0          
T        Si     0.710500000000     0.284550000000     0.780850000000     0          
T        Si     0.904866666667     0.312650000000     0.575100000000     0          
T        Si     0.916466666667     0.313350000000     0.828800000000     0          
T        Si     0.877166666667     0.374550000000     0.594500000000     0          
T        Si     0.877133333333     0.464750000000     0.780900000000     0          
T        Si     0.877166666667     0.465450000000     0.530850000000     0          
T        Si     0.877233333333     0.453200000000     0.875000000000     0          
T        Si     0.877233333333     0.473700000000     0.625000000000     0          
T        Si     0.833333333333     0.276050000000     0.594400000000     0          
T        Si     0.833333333333     0.297100000000     0.844450000000     0          
T        Si     0.761800000000     0.187350000000     0.825100000000     0          
T        Si     0.750200000000     0.186650000000     0.578800000000     0          
T        Si     0.789500000000     0.125450000000     0.844500000000     0          
T        Si     0.789533333333     0.035250000000     0.530900000000     0          
T        Si     0.789500000000     0.034550000000     0.780850000000     0          
T        Si     0.789433333333     0.046800000000     0.625000000000     0          
T        Si     0.789433333333     0.026300000000     0.875000000000     0          
T        Si     0.833333333333     0.223950000000     0.844400000000     0          
T        Si     0.833333333333     0.202900000000     0.594450000000     0          
T        Si     0.904866666667     0.187350000000     0.924900000000     0          
T        Si     0.916466666667     0.186650000000     0.671200000000     0          
T        Si     0.877166666667     0.125450000000     0.905500000000     0          
T        Si     0.877133333333     0.035250000000     0.719100000000     0          
T        Si     0.877166666667     0.034550000000     0.969150000000     0          
T        Si     0.877233333333     0.046800000000     0.625000000000     0          
T        Si     0.877233333333     0.026300000000     0.875000000000     0          
T        Si     0.833333333333     0.223950000000     0.905600000000     0          
T        Si     0.833333333333     0.202900000000     0.655550000000     0          
T        Si     0.761800000000     0.312650000000     0.674900000000     0          
T        Si     0.750200000000     0.313350000000     0.921200000000     0          
T        Si     0.789500000000     0.374550000000     0.655500000000     0          
T        Si     0.789533333333     0.464750000000     0.969100000000     0          
T        Si     0.789500000000     0.465450000000     0.719150000000     0          
T        Si     0.789433333333     0.453200000000     0.875000000000     0          
T        Si     0.789433333333     0.473700000000     0.625000000000     0          
T        Si     0.833333333333     0.276050000000     0.655600000000     0          
T        Si     0.833333333333     0.297100000000     0.905550000000     0          
T        Si     0.761800000000     0.187350000000     0.924900000000     0          
T        Si     0.750200000000     0.186650000000     0.671200000000     0          
T        Si     0.789500000000     0.125450000000     0.905500000000     0          
T        Si     0.789533333333     0.035250000000     0.719100000000     0          
T        Si     0.789500000000     0.034550000000     0.969150000000     0          
T        Si     0.904866666667     0.312650000000     0.674900000000     0          
T        Si     0.916466666667     0.313350000000     0.921200000000     0          
T        Si     0.877166666667     0.374550000000     0.655500000000     0          
T        Si     0.877133333333     0.464750000000     0.969100000000     0          
T        Si     0.877166666667     0.465450000000     0.719150000000     0          
T        Si     0.761800000000     0.312650000000     0.575100000000     0          
T        Si     0.750200000000     0.313350000000     0.828800000000     0          
T        Si     0.789500000000     0.374550000000     0.594500000000     0          
T        Si     0.789533333333     0.464750000000     0.780900000000     0          
T        Si     0.789500000000     0.465450000000     0.530850000000     0          
T        Si     0.904866666667     0.187350000000     0.825100000000     0          
T        Si     0.916466666667     0.186650000000     0.578800000000     0          
T        Si     0.877166666667     0.125450000000     0.844500000000     0          
T        Si     0.877133333333     0.035250000000     0.530900000000     0          
T        Si     0.877166666667     0.034550000000     0.780850000000     0          
T        Si     0.738200000000     0.562650000000     0.075100000000     0          
T        Si     0.749800000000     0.563350000000     0.328800000000     0          
T        Si     0.710500000000     0.624550000000     0.094500000000     0          
T        Si     0.710466666667     0.714750000000     0.280900000000     0          
T        Si     0.710500000000     0.715450000000     0.030850000000     0          
T        Si     0.710566666667     0.703200000000     0.375000000000     0          
T        Si     0.710566666667     0.723700000000     0.125000000000     0          
T        Si     0.666666666667     0.526050000000     0.094400000000     0          
T        Si     0.666666666667     0.547100000000     0.344450000000     0          
T        Si     0.928466666667     0.937350000000     0.325100000000     0          
T        Si     0.916866666667     0.936650000000     0.078800000000     0          
T        Si     0.956166666667     0.875450000000     0.344500000000     0          
T        Si     0.956200000000     0.785250000000     0.030900000000     0          
T        Si     0.956166666667     0.784550000000     0.280850000000     0          
T        Si     0.956100000000     0.796800000000     0.125000000000     0          
T        Si     0.956100000000     0.776300000000     0.375000000000     0          
T        Si     0.666666666667     0.973950000000     0.344400000000     0          
T        Si     0.666666666667     0.952900000000     0.094450000000     0          
T        Si     0.738200000000     0.937350000000     0.424900000000     0          
T        Si     0.749800000000     0.936650000000     0.171200000000     0          
T        Si     0.710500000000     0.875450000000     0.405500000000     0          
T        Si     0.710466666667     0.785250000000     0.219100000000     0          
T        Si     0.710500000000     0.784550000000     0.469150000000     0          
T        Si     0.710566666667     0.796800000000     0.125000000000     0          
T        Si     0.710566666667     0.776300000000     0.375000000000     0          
T        Si     0.666666666667     0.973950000000     0.405600000000     0          
T        Si     0.666666666667     0.952900000000     0.155550000000     0          
T        Si     0.928466666667     0.562650000000     0.174900000000     0          
T        Si     0.916866666667     0.563350000000     0.421200000000     0          
T        Si     0.956166666667     0.624550000000     0.155500000000     0          
T        Si     0.956200000000     0.714750000000     0.469100000000     0          
T        Si     0.956166666667     0.715450000000     0.219150000000     0          
T        Si     0.956100000000     0.703200000000     0.375000000000     0          
T        Si     0.956100000000     0.723700000000     0.125000000000     0          
T        Si     0.666666666667     0.526050000000     0.155600000000     0          
T        Si     0.666666666667     0.547100000000     0.405550000000     0          
T        Si     0.928466666667     0.937350000000     0.424900000000     0          
T        Si     0.916866666667     0.936650000000     0.171200000000     0          
T        Si     0.956166666667     0.875450000000     0.405500000000     0          
T        Si     0.956200000000     0.785250000000     0.219100000000     0          
T        Si     0.956166666667     0.784550000000     0.469150000000     0          
T        Si     0.738200000000     0.562650000000     0.174900000000     0          
T        Si     0.749800000000     0.563350000000     0.421200000000     0          
T        Si     0.710500000000     0.624550000000     0.155500000000     0          
T        Si     0.710466666667     0.714750000000     0.469100000000     0          
T        Si     0.710500000000     0.715450000000     0.219150000000     0          
T        Si     0.928466666667     0.562650000000     0.075100000000     0          
T        Si     0.916866666667     0.563350000000     0.328800000000     0          
T        Si     0.956166666667     0.624550000000     0.094500000000     0          
T        Si     0.956200000000     0.714750000000     0.280900000000     0          
T        Si     0.956166666667     0.715450000000     0.030850000000     0          
T        Si     0.738200000000     0.937350000000     0.325100000000     0          
T        Si     0.749800000000     0.936650000000     0.078800000000     0          
T        Si     0.710500000000     0.875450000000     0.344500000000     0          
T        Si     0.710466666667     0.785250000000     0.030900000000     0          
T        Si     0.710500000000     0.784550000000     0.280850000000     0          
T        Si     0.904866666667     0.812650000000     0.075100000000     0          
T        Si     0.916466666667     0.813350000000     0.328800000000     0          
T        Si     0.877166666667     0.874550000000     0.094500000000     0          
T        Si     0.877133333333     0.964750000000     0.280900000000     0          
T        Si     0.877166666667     0.965450000000     0.030850000000     0          
T        Si     0.877233333333     0.953200000000     0.375000000000     0          
T        Si     0.877233333333     0.973700000000     0.125000000000     0          
T        Si     0.833333333333     0.776050000000     0.094400000000     0          
T        Si     0.833333333333     0.797100000000     0.344450000000     0          
T        Si     0.761800000000     0.687350000000     0.325100000000     0          
T        Si     0.750200000000     0.686650000000     0.078800000000     0          
T        Si     0.789500000000     0.625450000000     0.344500000000     0          
T        Si     0.789533333333     0.535250000000     0.030900000000     0          
T        Si     0.789500000000     0.534550000000     0.280850000000     0          
T        Si     0.789433333333     0.546800000000     0.125000000000     0          
T        Si     0.789433333333     0.526300000000     0.375000000000     0          
T        Si     0.833333333333     0.723950000000     0.344400000000     0          
T        Si     0.833333333333     0.702900000000     0.094450000000     0          
T        Si     0.904866666667     0.687350000000     0.424900000000     0          
T        Si     0.916466666667     0.686650000000     0.171200000000     0          
T        Si     0.877166666667     0.625450000000     0.405500000000     0          
T        Si     0.877133333333     0.535250000000     0.219100000000     0          
T        Si     0.877166666667     0.534550000000     0.469150000000     0          
T        Si     0.877233333333     0.546800000000     0.125000000000     0          
T        Si     0.877233333333     0.526300000000     0.375000000000     0          
T        Si     0.833333333333     0.723950000000     0.405600000000     0          
T        Si     0.833333333333     0.702900000000     0.155550000000     0          
T        Si     0.761800000000     0.812650000000     0.174900000000     0          
T        Si     0.750200000000     0.813350000000     0.421200000000     0          
T        Si     0.789500000000     0.874550000000     0.155500000000     0          
T        Si     0.789533333333     0.964750000000     0.469100000000     0          
T        Si     0.789500000000     0.965450000000     0.219150000000     0          
T        Si     0.789433333333     0.953200000000     0.375000000000     0          
T        Si     0.789433333333     0.973700000000     0.125000000000     0          
T        Si     0.833333333333     0.776050000000     0.155600000000     0          
T        Si     0.833333333333     0.797100000000     0.405550000000     0          
T        Si     0.761800000000     0.687350000000     0.424900000000     0          
T        Si     0.750200000000     0.686650000000     0.171200000000     0          
T        Si     0.789500000000     0.625450000000     0.405500000000     0          
T        Si     0.789533333333     0.535250000000     0.219100000000     0          
T        Si     0.789500000000     0.534550000000     0.469150000000     0          
T        Si     0.904866666667     0.812650000000     0.174900000000     0          
T        Si     0.916466666667     0.813350000000     0.421200000000     0          
T        Si     0.877166666667     0.874550000000     0.155500000000     0          
T        Si     0.877133333333     0.964750000000     0.469100000000     0          
T        Si     0.877166666667     0.965450000000     0.219150000000     0          
T        Si     0.761800000000     0.812650000000     0.075100000000     0          
T        Si     0.750200000000     0.813350000000     0.328800000000     0          
T        Si     0.789500000000     0.874550000000     0.094500000000     0          
T        Si     0.789533333333     0.964750000000     0.280900000000     0          
T        Si     0.789500000000     0.965450000000     0.030850000000     0          
T        Si     0.904866666667     0.687350000000     0.325100000000     0          
T        Si     0.916466666667     0.686650000000     0.078800000000     0          
T        Si     0.877166666667     0.625450000000     0.344500000000     0          
T        Si     0.877133333333     0.535250000000     0.030900000000     0          
T        Si     0.877166666667     0.534550000000     0.280850000000     0          
T        Si     0.738200000000     0.562650000000     0.575100000000     0          
T        Si     0.749800000000     0.563350000000     0.828800000000     0          
T        Si     0.710500000000     0.624550000000     0.594500000000     0          
T        Si     0.710466666667     0.714750000000     0.780900000000     0          
T        Si     0.710500000000     0.715450000000     0.530850000000     0          
T        Si     0.710566666667     0.703200000000     0.875000000000     0          
T        Si     0.710566666667     0.723700000000     0.625000000000     0          
T        Si     0.666666666667     0.526050000000     0.594400000000     0          
T        Si     0.666666666667     0.547100000000     0.844450000000     0          
T        Si     0.928466666667     0.937350000000     0.825100000000     0          
T        Si     0.916866666667     0.936650000000     0.578800000000     0          
T        Si     0.956166666667     0.875450000000     0.844500000000     0          
T        Si     0.956200000000     0.785250000000     0.530900000000     0          
T        Si     0.956166666667     0.784550000000     0.780850000000     0          
T        Si     0.956100000000     0.796800000000     0.625000000000     0          
T        Si     0.956100000000     0.776300000000     0.875000000000     0          
T        Si     0.666666666667     0.973950000000     0.844400000000     0          
T        Si     0.666666666667     0.952900000000     0.594450000000     0          
T        Si     0.738200000000     0.937350000000     0.924900000000     0          
T        Si     0.749800000000     0.936650000000     0.671200000000     0          
T        Si     0.710500000000     0.875450000000     0.905500000000     0          
T        Si     0.710466666667     0.785250000000     0.719100000000     0          
T        Si     0.710500000000     0.784550000000     0.969150000000     0          
T        Si     0.710566666667     0.796800000000     0.625000000000     0          
T        Si     0.710566666667     0.776300000000     0.875000000000     0          
T        Si     0.666666666667     0.973950000000     0.905600000000     0          
T        Si     0.666666666667     0.952900000000     0.655550000000     0          
T        Si     0.928466666667     0.562650000000     0.674900000000     0          
T        Si     0.916866666667     0.563350000000     0.921200000000     0          
T        Si     0.956166666667     0.624550000000     0.655500000000     0          
T        Si     0.956200000000     0.714750000000     0.969100000000     0          
T        Si     0.956166666667     0.715450000000     0.719150000000     0          
T        Si     0.956100000000     0.703200000000     0.875000000000     0          
T        Si     0.956100000000     0.723700000000     0.625000000000     0          
T        Si     0.666666666667     0.526050000000     0.655600000000     0          
T        Si     0.666666666667     0.547100000000     0.905550000000     0          
T        Si     0.928466666667     0.937350000000     0.924900000000     0          
T        Si     0.916866666667     0.936650000000     0.671200000000     0          
T        Si     0.956166666667     0.875450000000     0.905500000000     0          
T        Si     0.956200000000     0.785250000000     0.719100000000     0          
T        Si     0.956166666667     0.784550000000     0.969150000000     0          
T        Si     0.738200000000     0.562650000000     0.674900000000     0          
T        Si     0.749800000000     0.563350000000     0.921200000000     0          
T        Si     0.710500000000     0.624550000000     0.655500000000     0          
T        Si     0.710466666667     0.714750000000     0.969100000000     0          
T        Si     0.710500000000     0.715450000000     0.719150000000     0          
T        Si     0.928466666667     0.562650000000     0.575100000000     0          
T        Si     0.916866666667     0.563350000000     0.828800000000     0          
T        Si     0.956166666667     0.624550000000     0.594500000000     0          
T        Si     0.956200000000     0.714750000000     0.780900000000     0          
T        Si     0.956166666667     0.715450000000     0.530850000000     0          
T        Si     0.738200000000     0.937350000000     0.825100000000     0          
T        Si     0.749800000000     0.936650000000     0.578800000000     0          
T        Si     0.710500000000     0.875450000000     0.844500000000     0          
T        Si     0.710466666667     0.785250000000     0.530900000000     0          
T        Si     0.710500000000     0.784550000000     0.780850000000     0          
T        Si     0.904866666667     0.812650000000     0.575100000000     0          
T        Si     0.916466666667     0.813350000000     0.828800000000     0          
T        Si     0.877166666667     0.874550000000     0.594500000000     0          
T        Si     0.877133333333     0.964750000000     0.780900000000     0          
T        Si     0.877166666667     0.965450000000     0.530850000000     0          
T        Si     0.877233333333     0.953200000000     0.875000000000     0          
T        Si     0.877233333333     0.973700000000     0.625000000000     0          
T        Si     0.833333333333     0.776050000000     0.594400000000     0          
T        Si     0.833333333333     0.797100000000     0.844450000000     0          
T        Si     0.761800000000     0.687350000000     0.825100000000     0          
T        Si     0.750200000000     0.686650000000     0.578800000000     0          
T        Si     0.789500000000     0.625450000000     0.844500000000     0          
T        Si     0.789533333333     0.535250000000     0.530900000000     0          
T        Si     0.789500000000     0.534550000000     0.780850000000     0          
T        Si     0.789433333333     0.546800000000     0.625000000000     0          
T        Si     0.789433333333     0.526300000000     0.875000000000     0          
T        Si     0.833333333333     0.723950000000     0.844400000000     0          
T        Si     0.833333333333     0.702900000000     0.594450000000     0          
T        Si     0.904866666667     0.687350000000     0.924900000000     0          
T        Si     0.916466666667     0.686650000000     0.671200000000     0          
T        Si     0.877166666667     0.625450000000     0.905500000000     0          
T        Si     0.877133333333     0.535250000000     0.719100000000     0          
T        Si     0.877166666667     0.534550000000     0.969150000000     0          
T        Si     0.877233333333     0.546800000000     0.625000000000     0          
T        Si     0.877233333333     0.526300000000     0.875000000000     0          
T        Si     0.833333333333     0.723950000000     0.905600000000     0          
T        Si     0.833333333333     0.702900000000     0.655550000000     0          
T        Si     0.761800000000     0.812650000000     0.674900000000     0          
T        Si     0.750200000000     0.813350000000     0.921200000000     0          
T        Si     0.789500000000     0.874550000000     0.655500000000     0          
T        Si     0.789533333333     0.964750000000     0.969100000000     0          
T        Si     0.789500000000     0.965450000000     0.719150000000     0          
T        Si     0.789433333333     0.953200000000     0.875000000000     0          
T        Si     0.789433333333     0.973700000000     0.625000000000     0          
T        Si     0.833333333333     0.776050000000     0.655600000000     0          
T        Si     0.833333333333     0.797100000000     0.905550000000     0          
T        Si     0.761800000000     0.687350000000     0.924900000000     0          
T        Si     0.750200000000     0.686650000000     0.671200000000     0          
T        Si     0.789500000000     0.625450000000     0.905500000000     0          
T        Si     0.789533333333     0.535250000000     0.719100000000     0          
T        Si     0.789500000000     0.534550000000     0.969150000000     0          
T        Si     0.904866666667     0.812650000000     0.674900000000     0          
T        Si     0.916466666667     0.813350000000     0.921200000000     0          
T        Si     0.877166666667     0.874550000000     0.655500000000     0          
T        Si     0.877133333333     0.964750000000     0.969100000000     0          
T        Si     0.877166666667     0.965450000000     0.719150000000     0          
T        Si     0.761800000000     0.812650000000     0.575100000000     0          
T        Si     0.750200000000     0.813350000000     0.828800000000     0          
T        Si     0.789500000000     0.874550000000     0.594500000000     0          
T        Si     0.789533333333     0.964750000000     0.780900000000     0          
T        Si     0.789500000000     0.965450000000     0.530850000000     0          
T        Si     0.904866666667     0.687350000000     0.825100000000     0          
T        Si     0.916466666667     0.686650000000     0.578800000000     0          
T        Si     0.877166666667     0.625450000000     0.844500000000     0          
T        Si     0.877133333333     0.535250000000     0.530900000000     0          
T        Si     0.877166666667     0.534550000000     0.780850000000     0          
O        O      0.101933333333     0.060050000000     0.099000000000     0          
O        O      0.037566666667     0.038450000000     0.079500000000     0          
O        O      0.094033333333     0.056250000000     0.047800000000     0          
O        O      0.053900000000     0.096450000000     0.075150000000     0          
O        O      0.096600000000     0.056500000000     0.298850000000     0          
O        O      0.101800000000     0.039000000000     0.348800000000     0          
O        O      0.037366666667     0.060400000000     0.329900000000     0          
O        O      0.095300000000     0.097250000000     0.337400000000     0          
O        O      0.050100000000     0.114750000000     0.125000000000     0          
O        O      0.000000000000     0.134400000000     0.090100000000     0          
O        O      0.000000000000     0.204800000000     0.285300000000     0          
O        O      0.049200000000     0.249700000000     0.289950000000     0          
O        O      0.054933333333     0.211750000000     0.250000000000     0          
O        O      0.000000000000     0.205500000000     0.034950000000     0          
O        O      0.000000000000     0.192350000000     0.375000000000     0          
O        O      0.045933333333     0.239750000000     0.375000000000     0          
O        O      0.000000000000     0.212850000000     0.125000000000     0          
O        O      0.000000000000     0.489450000000     0.093050000000     0          
O        O      0.000000000000     0.036750000000     0.125000000000     0          
O        O      0.000000000000     0.057950000000     0.375000000000     0          
O        O      0.231400000000     0.439950000000     0.349000000000     0          
O        O      0.295766666667     0.461550000000     0.329500000000     0          
O        O      0.239300000000     0.443750000000     0.297800000000     0          
O        O      0.279433333333     0.403550000000     0.325150000000     0          
O        O      0.236733333333     0.443500000000     0.048850000000     0          
O        O      0.231533333333     0.461000000000     0.098800000000     0          
O        O      0.295966666667     0.439600000000     0.079900000000     0          
O        O      0.238033333333     0.402750000000     0.087400000000     0          
O        O      0.283233333333     0.385250000000     0.375000000000     0          
O        O      0.000000000000     0.365600000000     0.340100000000     0          
O        O      0.000000000000     0.295200000000     0.035300000000     0          
O        O      0.284133333333     0.250300000000     0.039950000000     0          
O        O      0.278400000000     0.288250000000     0.000000000000     0          
O        O      0.000000000000     0.294500000000     0.284950000000     0          
O        O      0.000000000000     0.307650000000     0.125000000000     0          
O        O      0.287400000000     0.260250000000     0.125000000000     0          
O        O      0.000000000000     0.287150000000     0.375000000000     0          
O        O      0.000000000000     0.010550000000     0.343050000000     0          
O        O      0.000000000000     0.463250000000     0.375000000000     0          
O        O      0.000000000000     0.442050000000     0.125000000000     0          
O        O      0.101933333333     0.439950000000     0.401000000000     0          
O        O      0.037566666667     0.461550000000     0.420500000000     0          
O        O      0.094033333333     0.443750000000     0.452200000000     0          
O        O      0.053900000000     0.403550000000     0.424850000000     0          
O        O      0.096600000000     0.443500000000     0.201150000000     0          
O        O      0.101800000000     0.461000000000     0.151200000000     0          
O        O      0.037366666667     0.439600000000     0.170100000000     0          
O        O      0.095300000000     0.402750000000     0.162600000000     0          
O        O      0.050100000000     0.385250000000     0.375000000000     0          
O        O      0.000000000000     0.365600000000     0.409900000000     0          
O        O      0.000000000000     0.295200000000     0.214700000000     0          
O        O      0.049200000000     0.250300000000     0.210050000000     0          
O        O      0.054933333333     0.288250000000     0.250000000000     0          
O        O      0.000000000000     0.294500000000     0.465050000000     0          
O        O      0.045933333333     0.260250000000     0.125000000000     0          
O        O      0.000000000000     0.010550000000     0.406950000000     0          
O        O      0.231400000000     0.060050000000     0.151000000000     0          
O        O      0.295766666667     0.038450000000     0.170500000000     0          
O        O      0.239300000000     0.056250000000     0.202200000000     0          
O        O      0.279433333333     0.096450000000     0.174850000000     0          
O        O      0.236733333333     0.056500000000     0.451150000000     0          
O        O      0.231533333333     0.039000000000     0.401200000000     0          
O        O      0.295966666667     0.060400000000     0.420100000000     0          
O        O      0.238033333333     0.097250000000     0.412600000000     0          
O        O      0.283233333333     0.114750000000     0.125000000000     0          
O        O      0.000000000000     0.134400000000     0.159900000000     0          
O        O      0.000000000000     0.204800000000     0.464700000000     0          
O        O      0.284133333333     0.249700000000     0.460050000000     0          
O        O      0.278400000000     0.211750000000     0.000000000000     0          
O        O      0.000000000000     0.205500000000     0.215050000000     0          
O        O      0.287400000000     0.239750000000     0.375000000000     0          
O        O      0.000000000000     0.489450000000     0.156950000000     0          
O        O      0.231400000000     0.439950000000     0.401000000000     0          
O        O      0.295766666667     0.461550000000     0.420500000000     0          
O        O      0.239300000000     0.443750000000     0.452200000000     0          
O        O      0.279433333333     0.403550000000     0.424850000000     0          
O        O      0.236733333333     0.443500000000     0.201150000000     0          
O        O      0.231533333333     0.461000000000     0.151200000000     0          
O        O      0.295966666667     0.439600000000     0.170100000000     0          
O        O      0.238033333333     0.402750000000     0.162600000000     0          
O        O      0.284133333333     0.250300000000     0.210050000000     0          
O        O      0.278400000000     0.288250000000     0.250000000000     0          
O        O      0.101933333333     0.060050000000     0.151000000000     0          
O        O      0.037566666667     0.038450000000     0.170500000000     0          
O        O      0.094033333333     0.056250000000     0.202200000000     0          
O        O      0.053900000000     0.096450000000     0.174850000000     0          
O        O      0.096600000000     0.056500000000     0.451150000000     0          
O        O      0.101800000000     0.039000000000     0.401200000000     0          
O        O      0.037366666667     0.060400000000     0.420100000000     0          
O        O      0.095300000000     0.097250000000     0.412600000000     0          
O        O      0.049200000000     0.249700000000     0.460050000000     0          
O        O      0.054933333333     0.211750000000     0.000000000000     0          
O        O      0.231400000000     0.060050000000     0.099000000000     0          
O        O      0.295766666667     0.038450000000     0.079500000000     0          
O        O      0.239300000000     0.056250000000     0.047800000000     0          
O        O      0.279433333333     0.096450000000     0.075150000000     0          
O        O      0.236733333333     0.056500000000     0.298850000000     0          
O        O      0.231533333333     0.039000000000     0.348800000000     0          
O        O      0.295966666667     0.060400000000     0.329900000000     0          
O        O      0.238033333333     0.097250000000     0.337400000000     0          
O        O      0.284133333333     0.249700000000     0.289950000000     0          
O        O      0.278400000000     0.211750000000     0.250000000000     0          
O        O      0.101933333333     0.439950000000     0.349000000000     0          
O        O      0.037566666667     0.461550000000     0.329500000000     0          
O        O      0.094033333333     0.443750000000     0.297800000000     0          
O        O      0.053900000000     0.403550000000     0.325150000000     0          
O        O      0.096600000000     0.443500000000     0.048850000000     0          
O        O      0.101800000000     0.461000000000     0.098800000000     0          
O        O      0.037366666667     0.439600000000     0.079900000000     0          
O        O      0.095300000000     0.402750000000     0.087400000000     0          
O        O      0.049200000000     0.250300000000     0.039950000000     0          
O        O      0.054933333333     0.288250000000     0.000000000000     0          
O        O      0.268600000000     0.310050000000     0.099000000000     0          
O        O      0.204233333333     0.288450000000     0.079500000000     0          
O        O      0.260700000000     0.306250000000     0.047800000000     0          
O        O      0.220566666667     0.346450000000     0.075150000000     0          
O        O      0.263266666667     0.306500000000     0.298850000000     0          
O        O      0.268466666667     0.289000000000     0.348800000000     0          
O        O      0.204033333333     0.310400000000     0.329900000000     0          
O        O      0.261966666667     0.347250000000     0.337400000000     0          
O        O      0.216766666667     0.364750000000     0.125000000000     0          
O        O      0.166666666667     0.384400000000     0.090100000000     0          
O        O      0.166666666667     0.454800000000     0.285300000000     0          
O        O      0.215866666667     0.499700000000     0.289950000000     0          
O        O      0.221600000000     0.461750000000     0.250000000000     0          
O        O      0.166666666667     0.455500000000     0.034950000000     0          
O        O      0.166666666667     0.442350000000     0.375000000000     0          
O        O      0.212600000000     0.489750000000     0.375000000000     0          
O        O      0.166666666667     0.462850000000     0.125000000000     0          
O        O      0.166666666667     0.239450000000     0.093050000000     0          
O        O      0.166666666667     0.286750000000     0.125000000000     0          
O        O      0.166666666667     0.307950000000     0.375000000000     0          
O        O      0.064733333333     0.189950000000     0.349000000000     0          
O        O      0.129100000000     0.211550000000     0.329500000000     0          
O        O      0.072633333333     0.193750000000     0.297800000000     0          
O        O      0.112766666667     0.153550000000     0.325150000000     0          
O        O      0.070066666667     0.193500000000     0.048850000000     0          
O        O      0.064866666667     0.211000000000     0.098800000000     0          
O        O      0.129300000000     0.189600000000     0.079900000000     0          
O        O      0.071366666667     0.152750000000     0.087400000000     0          
O        O      0.116566666667     0.135250000000     0.375000000000     0          
O        O      0.166666666667     0.115600000000     0.340100000000     0          
O        O      0.166666666667     0.045200000000     0.035300000000     0          
O        O      0.117466666667     0.000300000000     0.039950000000     0          
O        O      0.111733333333     0.038250000000     0.000000000000     0          
O        O      0.166666666667     0.044500000000     0.284950000000     0          
O        O      0.166666666667     0.057650000000     0.125000000000     0          
O        O      0.120733333333     0.010250000000     0.125000000000     0          
O        O      0.166666666667     0.037150000000     0.375000000000     0          
O        O      0.166666666667     0.260550000000     0.343050000000     0          
O        O      0.166666666667     0.213250000000     0.375000000000     0          
O        O      0.166666666667     0.192050000000     0.125000000000     0          
O        O      0.268600000000     0.189950000000     0.401000000000     0          
O        O      0.204233333333     0.211550000000     0.420500000000     0          
O        O      0.260700000000     0.193750000000     0.452200000000     0          
O        O      0.220566666667     0.153550000000     0.424850000000     0          
O        O      0.263266666667     0.193500000000     0.201150000000     0          
O        O      0.268466666667     0.211000000000     0.151200000000     0          
O        O      0.204033333333     0.189600000000     0.170100000000     0          
O        O      0.261966666667     0.152750000000     0.162600000000     0          
O        O      0.216766666667     0.135250000000     0.375000000000     0          
O        O      0.166666666667     0.115600000000     0.409900000000     0          
O        O      0.166666666667     0.045200000000     0.214700000000     0          
O        O      0.215866666667     0.000300000000     0.210050000000     0          
O        O      0.221600000000     0.038250000000     0.250000000000     0          
O        O      0.166666666667     0.044500000000     0.465050000000     0          
O        O      0.212600000000     0.010250000000     0.125000000000     0          
O        O      0.166666666667     0.260550000000     0.406950000000     0          
O        O      0.064733333333     0.310050000000     0.151000000000     0          
O        O      0.129100000000     0.288450000000     0.170500000000     0          
O        O      0.072633333333     0.306250000000     0.202200000000     0          
O        O      0.112766666667     0.346450000000     0.174850000000     0          
O        O      0.070066666667     0.306500000000     0.451150000000     0          
O        O      0.064866666667     0.289000000000     0.401200000000     0          
O        O      0.129300000000     0.310400000000     0.420100000000     0          
O        O      0.071366666667     0.347250000000     0.412600000000     0          
O        O      0.116566666667     0.364750000000     0.125000000000     0          
O        O      0.166666666667     0.384400000000     0.159900000000     0          
O        O      0.166666666667     0.454800000000     0.464700000000     0          
O        O      0.117466666667     0.499700000000     0.460050000000     0          
O        O      0.111733333333     0.461750000000     0.000000000000     0          
O        O      0.166666666667     0.455500000000     0.215050000000     0          
O        O      0.120733333333     0.489750000000     0.375000000000     0          
O        O      0.166666666667     0.239450000000     0.156950000000     0          
O        O      0.064733333333     0.189950000000     0.401000000000     0          
O        O      0.129100000000     0.211550000000     0.420500000000     0          
O        O      0.072633333333     0.193750000000     0.452200000000     0          
O        O      0.112766666667     0.153550000000     0.424850000000     0          
O        O      0.070066666667     0.193500000000     0.201150000000     0          
O        O      0.064866666667     0.211000000000     0.151200000000     0          
O        O      0.129300000000     0.189600000000     0.170100000000     0          
O        O      0.071366666667     0.152750000000     0.162600000000     0          
O        O      0.117466666667     0.000300000000     0.210050000000     0          
O        O      0.111733333333     0.038250000000     0.250000000000     0          
O        O      0.268600000000     0.310050000000     0.151000000000     0          
O        O      0.204233333333     0.288450000000     0.170500000000     0          
O        O      0.260700000000     0.306250000000     0.202200000000     0          
O        O      0.220566666667     0.346450000000     0.174850000000     0          
O        O      0.263266666667     0.306500000000     0.451150000000     0          
O        O      0.268466666667     0.289000000000     0.401200000000     0          
O        O      0.204033333333     0.310400000000     0.420100000000     0          
O        O      0.261966666667     0.347250000000     0.412600000000     0          
O        O      0.215866666667     0.499700000000     0.460050000000     0          
O        O      0.221600000000     0.461750000000     0.000000000000     0          
O        O      0.064733333333     0.310050000000     0.099000000000     0          
O        O      0.129100000000     0.288450000000     0.079500000000     0          
O        O      0.072633333333     0.306250000000     0.047800000000     0          
O        O      0.112766666667     0.346450000000     0.075150000000     0          
O        O      0.070066666667     0.306500000000     0.298850000000     0          
O        O      0.064866666667     0.289000000000     0.348800000000     0          
O        O      0.129300000000     0.310400000000     0.329900000000     0          
O        O      0.071366666667     0.347250000000     0.337400000000     0          
O        O      0.117466666667     0.499700000000     0.289950000000     0          
O        O      0.111733333333     0.461750000000     0.250000000000     0          
O        O      0.268600000000     0.189950000000     0.349000000000     0          
O        O      0.204233333333     0.211550000000     0.329500000000     0          
O        O      0.260700000000     0.193750000000     0.297800000000     0          
O        O      0.220566666667     0.153550000000     0.325150000000     0          
O        O      0.263266666667     0.193500000000     0.048850000000     0          
O        O      0.268466666667     0.211000000000     0.098800000000     0          
O        O      0.204033333333     0.189600000000     0.079900000000     0          
O        O      0.261966666667     0.152750000000     0.087400000000     0          
O        O      0.215866666667     0.000300000000     0.039950000000     0          
O        O      0.221600000000     0.038250000000     0.000000000000     0          
O        O      0.101933333333     0.060050000000     0.599000000000     0          
O        O      0.037566666667     0.038450000000     0.579500000000     0          
O        O      0.094033333333     0.056250000000     0.547800000000     0          
O        O      0.053900000000     0.096450000000     0.575150000000     0          
O        O      0.096600000000     0.056500000000     0.798850000000     0          
O        O      0.101800000000     0.039000000000     0.848800000000     0          
O        O      0.037366666667     0.060400000000     0.829900000000     0          
O        O      0.095300000000     0.097250000000     0.837400000000     0          
O        O      0.050100000000     0.114750000000     0.625000000000     0          
O        O      0.000000000000     0.134400000000     0.590100000000     0          
O        O      0.000000000000     0.204800000000     0.785300000000     0          
O        O      0.049200000000     0.249700000000     0.789950000000     0          
O        O      0.054933333333     0.211750000000     0.750000000000     0          
O        O      0.000000000000     0.205500000000     0.534950000000     0          
O        O      0.000000000000     0.192350000000     0.875000000000     0          
O        O      0.045933333333     0.239750000000     0.875000000000     0          
O        O      0.000000000000     0.212850000000     0.625000000000     0          
O        O      0.000000000000     0.489450000000     0.593050000000     0          
O        O      0.000000000000     0.036750000000     0.625000000000     0          
O        O      0.000000000000     0.057950000000     0.875000000000     0          
O        O      0.231400000000     0.439950000000     0.849000000000     0          
O        O      0.295766666667     0.461550000000     0.829500000000     0          
O        O      0.239300000000     0.443750000000     0.797800000000     0          
O        O      0.279433333333     0.403550000000     0.825150000000     0          
O        O      0.236733333333     0.443500000000     0.548850000000     0          
O        O      0.231533333333     0.461000000000     0.598800000000     0          
O        O      0.295966666667     0.439600000000     0.579900000000     0          
O        O      0.238033333333     0.402750000000     0.587400000000     0          
O        O      0.283233333333     0.385250000000     0.875000000000     0          
O        O      0.000000000000     0.365600000000     0.840100000000     0          
O        O      0.000000000000     0.295200000000     0.535300000000     0          
O        O      0.284133333333     0.250300000000     0.539950000000     0          
O        O      0.278400000000     0.288250000000     0.500000000000     0          
O        O      0.000000000000     0.294500000000     0.784950000000     0          
O        O      0.000000000000     0.307650000000     0.625000000000     0          
O        O      0.287400000000     0.260250000000     0.625000000000     0          
O        O      0.000000000000     0.287150000000     0.875000000000     0          
O        O      0.000000000000     0.010550000000     0.843050000000     0          
O        O      0.000000000000     0.463250000000     0.875000000000     0          
O        O      0.000000000000     0.442050000000     0.625000000000     0          
O        O      0.101933333333     0.439950000000     0.901000000000     0          
O        O      0.037566666667     0.461550000000     0.920500000000     0          
O        O      0.094033333333     0.443750000000     0.952200000000     0          
O        O      0.053900000000     0.403550000000     0.924850000000     0          
O        O      0.096600000000     0.443500000000     0.701150000000     0          
O        O      0.101800000000     0.461000000000     0.651200000000     0          
O        O      0.037366666667     0.439600000000     0.670100000000     0          
O        O      0.095300000000     0.402750000000     0.662600000000     0          
O        O      0.050100000000     0.385250000000     0.875000000000     0          
O        O      0.000000000000     0.365600000000     0.909900000000     0          
O        O      0.000000000000     0.295200000000     0.714700000000     0          
O        O      0.049200000000     0.250300000000     0.710050000000     0          
O        O      0.054933333333     0.288250000000     0.750000000000     0          
O        O      0.000000000000     0.294500000000     0.965050000000     0          
O        O      0.045933333333     0.260250000000     0.625000000000     0          
O        O      0.000000000000     0.010550000000     0.906950000000     0          
O        O      0.231400000000     0.060050000000     0.651000000000     0          
O        O      0.295766666667     0.038450000000     0.670500000000     0          
O        O      0.239300000000     0.056250000000     0.702200000000     0          
O        O      0.279433333333     0.096450000000     0.674850000000     0          
O        O      0.236733333333     0.056500000000     0.951150000000     0          
O        O      0.231533333333     0.039000000000     0.901200000000     0          
O        O      0.295966666667     0.060400000000     0.920100000000     0          
O        O      0.238033333333     0.097250000000     0.912600000000     0          
O        O      0.283233333333     0.114750000000     0.625000000000     0          
O        O      0.000000000000     0.134400000000     0.659900000000     0          
O        O      0.000000000000     0.204800000000     0.964700000000     0          
O        O      0.284133333333     0.249700000000     0.960050000000     0          
O        O      0.278400000000     0.211750000000     0.500000000000     0          
O        O      0.000000000000     0.205500000000     0.715050000000     0          
O        O      0.287400000000     0.239750000000     0.875000000000     0          
O        O      0.000000000000     0.489450000000     0.656950000000     0          
O        O      0.231400000000     0.439950000000     0.901000000000     0          
O        O      0.295766666667     0.461550000000     0.920500000000     0          
O        O      0.239300000000     0.443750000000     0.952200000000     0          
O        O      0.279433333333     0.403550000000     0.924850000000     0          
O        O      0.236733333333     0.443500000000     0.701150000000     0          
O        O      0.231533333333     0.461000000000     0.651200000000     0          
O        O      0.295966666667     0.439600000000     0.670100000000     0          
O        O      0.238033333333     0.402750000000     0.662600000000     0          
O        O      0.284133333333     0.250300000000     0.710050000000     0          
O        O      0.278400000000     0.288250000000     0.750000000000     0          
O        O      0.101933333333     0.060050000000     0.651000000000     0          
O        O      0.037566666667     0.038450000000     0.670500000000     0          
O        O      0.094033333333     0.056250000000     0.702200000000     0          
O        O      0.053900000000     0.096450000000     0.674850000000     0          
O        O      0.096600000000     0.056500000000     0.951150000000     0          
O        O      0.101800000000     0.039000000000     0.901200000000     0          
O        O      0.037366666667     0.060400000000     0.920100000000     0          
O        O      0.095300000000     0.097250000000     0.912600000000     0          
O        O      0.049200000000     0.249700000000     0.960050000000     0          
O        O      0.054933333333     0.211750000000     0.500000000000     0          
O        O      0.231400000000     0.060050000000     0.599000000000     0          
O        O      0.295766666667     0.038450000000     0.579500000000     0          
O        O      0.239300000000     0.056250000000     0.547800000000     0          
O        O      0.279433333333     0.096450000000     0.575150000000     0          
O        O      0.236733333333     0.056500000000     0.798850000000     0          
O        O      0.231533333333     0.039000000000     0.848800000000     0          
O        O      0.295966666667     0.060400000000     0.829900000000     0          
O        O      0.238033333333     0.097250000000     0.837400000000     0          
O        O      0.284133333333     0.249700000000     0.789950000000     0          
O        O      0.278400000000     0.211750000000     0.750000000000     0          
O        O      0.101933333333     0.439950000000     0.849000000000     0          
O        O      0.037566666667     0.461550000000     0.829500000000     0          
O        O      0.094033333333     0.443750000000     0.797800000000     0          
O        O      0.053900000000     0.403550000000     0.825150000000     0          
O        O      0.096600000000     0.443500000000     0.548850000000     0          
O        O      0.101800000000     0.461000000000     0.598800000000     0          
O        O      0.037366666667     0.439600000000     0.579900000000     0          
O        O      0.095300000000     0.402750000000     0.587400000000     0          
O        O      0.049200000000     0.250300000000     0.539950000000     0          
O        O      0.054933333333     0.288250000000     0.500000000000     0          
O        O      0.268600000000     0.310050000000     0.599000000000     0          
O        O      0.204233333333     0.288450000000     0.579500000000     0          
O        O      0.260700000000     0.306250000000     0.547800000000     0          
O        O      0.220566666667     0.346450000000     0.575150000000     0          
O        O      0.263266666667     0.306500000000     0.798850000000     0          
O        O      0.268466666667     0.289000000000     0.848800000000     0          
O        O      0.204033333333     0.310400000000     0.829900000000     0          
O        O      0.261966666667     0.347250000000     0.837400000000     0          
O        O      0.216766666667     0.364750000000     0.625000000000     0          
O        O      0.166666666667     0.384400000000     0.590100000000     0          
O        O      0.166666666667     0.454800000000     0.785300000000     0          
O        O      0.215866666667     0.499700000000     0.789950000000     0          
O        O      0.221600000000     0.461750000000     0.750000000000     0          
O        O      0.166666666667     0.455500000000     0.534950000000     0          
O        O      0.166666666667     0.442350000000     0.875000000000     0          
O        O      0.212600000000     0.489750000000     0.875000000000     0          
O        O      0.166666666667     0.462850000000     0.625000000000     0          
O        O      0.166666666667     0.239450000000     0.593050000000     0          
O        O      0.166666666667     0.286750000000     0.625000000000     0          
O        O      0.166666666667     0.307950000000     0.875000000000     0          
O        O      0.064733333333     0.189950000000     0.849000000000     0          
O        O      0.129100000000     0.211550000000     0.829500000000     0          
O        O      0.072633333333     0.193750000000     0.797800000000     0          
O        O      0.112766666667     0.153550000000     0.825150000000     0          
O        O      0.070066666667     0.193500000000     0.548850000000     0          
O        O      0.064866666667     0.211000000000     0.598800000000     0          
O        O      0.129300000000     0.189600000000     0.579900000000     0          
O        O      0.071366666667     0.152750000000     0.587400000000     0          
O        O      0.116566666667     0.135250000000     0.875000000000     0          
O        O      0.166666666667     0.115600000000     0.840100000000     0          
O        O      0.166666666667     0.045200000000     0.535300000000     0          
O        O      0.117466666667     0.000300000000     0.539950000000     0          
O        O      0.111733333333     0.038250000000     0.500000000000     0          
O        O      0.166666666667     0.044500000000     0.784950000000     0          
O        O      0.166666666667     0.057650000000     0.625000000000     0          
O        O      0.120733333333     0.010250000000     0.625000000000     0          
O        O      0.166666666667     0.037150000000     0.875000000000     0          
O        O      0.166666666667     0.260550000000     0.843050000000     0          
O        O      0.166666666667     0.213250000000     0.875000000000     0          
O        O      0.166666666667     0.192050000000     0.625000000000     0          
O        O      0.268600000000     0.189950000000     0.901000000000     0          
O        O      0.204233333333     0.211550000000     0.920500000000     0          
O        O      0.260700000000     0.193750000000     0.952200000000     0          
O        O      0.220566666667     0.153550000000     0.924850000000     0          
O        O      0.263266666667     0.193500000000     0.701150000000     0          
O        O      0.268466666667     0.211000000000     0.651200000000     0          
O        O      0.204033333333     0.189600000000     0.670100000000     0          
O        O      0.261966666667     0.152750000000     0.662600000000     0          
O        O      0.216766666667     0.135250000000     0.875000000000     0          
O        O      0.166666666667     0.115600000000     0.909900000000     0          
O        O      0.166666666667     0.045200000000     0.714700000000     0          
O        O      0.215866666667     0.000300000000     0.710050000000     0          
O        O      0.221600000000     0.038250000000     0.750000000000     0          
O        O      0.166666666667     0.044500000000     0.965050000000     0          
O        O      0.212600000000     0.010250000000     0.625000000000     0          
O        O      0.166666666667     0.260550000000     0.906950000000     0          
O        O      0.064733333333     0.310050000000     0.651000000000     0          
O        O      0.129100000000     0.288450000000     0.670500000000     0          
O        O      0.072633333333     0.306250000000     0.702200000000     0          
O        O      0.112766666667     0.346450000000     0.674850000000     0          
O        O      0.070066666667     0.306500000000     0.951150000000     0          
O        O      0.064866666667     0.289000000000     0.901200000000     0          
O        O      0.129300000000     0.310400000000     0.920100000000     0          
O        O      0.071366666667     0.347250000000     0.912600000000     0          
O        O      0.116566666667     0.364750000000     0.625000000000     0          
O        O      0.166666666667     0.384400000000     0.659900000000     0          
O        O      0.166666666667     0.454800000000     0.964700000000     0          
O        O      0.117466666667     0.499700000000     0.960050000000     0          
O        O      0.111733333333     0.461750000000     0.500000000000     0          
O        O      0.166666666667     0.455500000000     0.715050000000     0          
O        O      0.120733333333     0.489750000000     0.875000000000     0          
O        O      0.166666666667     0.239450000000     0.656950000000     0          
O        O      0.064733333333     0.189950000000     0.901000000000     0          
O        O      0.129100000000     0.211550000000     0.920500000000     0          
O        O      0.072633333333     0.193750000000     0.952200000000     0          
O        O      0.112766666667     0.153550000000     0.924850000000     0          
O        O      0.070066666667     0.193500000000     0.701150000000     0          
O        O      0.064866666667     0.211000000000     0.651200000000     0          
O        O      0.129300000000     0.189600000000     0.670100000000     0          
O        O      0.071366666667     0.152750000000     0.662600000000     0          
O        O      0.117466666667     0.000300000000     0.710050000000     0          
O        O      0.111733333333     0.038250000000     0.750000000000     0          
O        O      0.268600000000     0.310050000000     0.651000000000     0          
O        O      0.204233333333     0.288450000000     0.670500000000     0          
O        O      0.260700000000     0.306250000000     0.702200000000     0          
O        O      0.220566666667     0.346450000000     0.674850000000     0          
O        O      0.263266666667     0.306500000000     0.951150000000     0          
O        O      0.268466666667     0.289000000000     0.901200000000     0          
O        O      0.204033333333     0.310400000000     0.920100000000     0          
O        O      0.261966666667     0.347250000000     0.912600000000     0          
O        O      0.215866666667     0.499700000000     0.960050000000     0          
O        O      0.221600000000     0.461750000000     0.500000000000     0          
O        O      0.064733333333     0.310050000000     0.599000000000     0          
O        O      0.129100000000     0.288450000000     0.579500000000     0          
O        O      0.072633333333     0.306250000000     0.547800000000     0          
O        O      0.112766666667     0.346450000000     0.575150000000     0          
O        O      0.070066666667     0.306500000000     0.798850000000     0          
O        O      0.064866666667     0.289000000000     0.848800000000     0          
O        O      0.129300000000     0.310400000000     0.829900000000     0          
O        O      0.071366666667     0.347250000000     0.837400000000     0          
O        O      0.117466666667     0.499700000000     0.789950000000     0          
O        O      0.111733333333     0.461750000000     0.750000000000     0          
O        O      0.268600000000     0.189950000000     0.849000000000     0          
O        O      0.204233333333     0.211550000000     0.829500000000     0          
O        O      0.260700000000     0.193750000000     0.797800000000     0          
O        O      0.220566666667     0.153550000000     0.825150000000     0          
O        O      0.263266666667     0.193500000000     0.548850000000     0          
O        O      0.268466666667     0.211000000000     0.598800000000     0          
O        O      0.204033333333     0.189600000000     0.579900000000     0          
O        O      0.261966666667     0.152750000000     0.587400000000     0          
O        O      0.215866666667     0.000300000000     0.539950000000     0          
O        O      0.221600000000     0.038250000000     0.500000000000     0          
O        O      0.101933333333     0.560050000000     0.099000000000     0          
O        O      0.037566666667     0.538450000000     0.079500000000     0          
O        O      0.094033333333     0.556250000000     0.047800000000     0          
O        O      0.053900000000     0.596450000000     0.075150000000     0          
O        O      0.096600000000     0.556500000000     0.298850000000     0          
O        O      0.101800000000     0.539000000000     0.348800000000     0          
O        O      0.037366666667     0.560400000000     0.329900000000     0          
O        O      0.095300000000     0.597250000000     0.337400000000     0          
O        O      0.050100000000     0.614750000000     0.125000000000     0          
O        O      0.000000000000     0.634400000000     0.090100000000     0          
O        O      0.000000000000     0.704800000000     0.285300000000     0          
O        O      0.049200000000     0.749700000000     0.289950000000     0          
O        O      0.054933333333     0.711750000000     0.250000000000     0          
O        O      0.000000000000     0.705500000000     0.034950000000     0          
O        O      0.000000000000     0.692350000000     0.375000000000     0          
O        O      0.045933333333     0.739750000000     0.375000000000     0          
O        O      0.000000000000     0.712850000000     0.125000000000     0          
O        O      0.000000000000     0.989450000000     0.093050000000     0          
O        O      0.000000000000     0.536750000000     0.125000000000     0          
O        O      0.000000000000     0.557950000000     0.375000000000     0          
O        O      0.231400000000     0.939950000000     0.349000000000     0          
O        O      0.295766666667     0.961550000000     0.329500000000     0          
O        O      0.239300000000     0.943750000000     0.297800000000     0          
O        O      0.279433333333     0.903550000000     0.325150000000     0          
O        O      0.236733333333     0.943500000000     0.048850000000     0          
O        O      0.231533333333     0.961000000000     0.098800000000     0          
O        O      0.295966666667     0.939600000000     0.079900000000     0          
O        O      0.238033333333     0.902750000000     0.087400000000     0          
O        O      0.283233333333     0.885250000000     0.375000000000     0          
O        O      0.000000000000     0.865600000000     0.340100000000     0          
O        O      0.000000000000     0.795200000000     0.035300000000     0          
O        O      0.284133333333     0.750300000000     0.039950000000     0          
O        O      0.278400000000     0.788250000000     0.000000000000     0          
O        O      0.000000000000     0.794500000000     0.284950000000     0          
O        O      0.000000000000     0.807650000000     0.125000000000     0          
O        O      0.287400000000     0.760250000000     0.125000000000     0          
O        O      0.000000000000     0.787150000000     0.375000000000     0          
O        O      0.000000000000     0.510550000000     0.343050000000     0          
O        O      0.000000000000     0.963250000000     0.375000000000     0          
O        O      0.000000000000     0.942050000000     0.125000000000     0          
O        O      0.101933333333     0.939950000000     0.401000000000     0          
O        O      0.037566666667     0.961550000000     0.420500000000     0          
O        O      0.094033333333     0.943750000000     0.452200000000     0          
O        O      0.053900000000     0.903550000000     0.424850000000     0          
O        O      0.096600000000     0.943500000000     0.201150000000     0          
O        O      0.101800000000     0.961000000000     0.151200000000     0          
O        O      0.037366666667     0.939600000000     0.170100000000     0          
O        O      0.095300000000     0.902750000000     0.162600000000     0          
O        O      0.050100000000     0.885250000000     0.375000000000     0          
O        O      0.000000000000     0.865600000000     0.409900000000     0          
O        O      0.000000000000     0.795200000000     0.214700000000     0          
O        O      0.049200000000     0.750300000000     0.210050000000     0          
O        O      0.054933333333     0.788250000000     0.250000000000     0          
O        O      0.000000000000     0.794500000000     0.465050000000     0          
O        O      0.045933333333     0.760250000000     0.125000000000     0          
O        O      0.000000000000     0.510550000000     0.406950000000     0          
O        O      0.231400000000     0.560050000000     0.151000000000     0          
O        O      0.295766666667     0.538450000000     0.170500000000     0          
O        O      0.239300000000     0.556250000000     0.202200000000     0          
O        O      0.279433333333     0.596450000000     0.174850000000     0          
O        O      0.236733333333     0.556500000000     0.451150000000     0          
O        O      0.231533333333     0.539000000000     0.401200000000     0          
O        O      0.295966666667     0.560400000000     0.420100000000     0          
O        O      0.238033333333     0.597250000000     0.412600000000     0          
O        O      0.283233333333     0.614750000000     0.125000000000     0          
O        O      0.000000000000     0.634400000000     0.159900000000     0          
O        O      0.000000000000     0.704800000000     0.464700000000     0          
O        O      0.284133333333     0.749700000000     0.460050000000     0          
O        O      0.278400000000     0.711750000000     0.000000000000     0          
O        O      0.000000000000     0.705500000000     0.215050000000     0          
O        O      0.287400000000     0.739750000000     0.375000000000     0          
O        O      0.000000000000     0.989450000000     0.156950000000     0          
O        O      0.231400000000     0.939950000000     0.401000000000     0          
O        O      0.295766666667     0.961550000000     0.420500000000     0          
O        O      0.239300000000     0.943750000000     0.452200000000     0          
O        O      0.279433333333     0.903550000000     0.424850000000     0          
O        O      0.236733333333     0.943500000000     0.201150000000     0          
O        O      0.231533333333     0.961000000000     0.151200000000     0          
O        O      0.295966666667     0.939600000000     0.170100000000     0          
O        O      0.238033333333     0.902750000000     0.162600000000     0          
O        O      0.284133333333     0.750300000000     0.210050000000     0          
O        O      0.278400000000     0.788250000000     0.250000000000     0          
O        O      0.101933333333     0.560050000000     0.151000000000     0          
O        O      0.037566666667     0.538450000000     0.170500000000     0          
O        O      0.094033333333     0.556250000000     0.202200000000     0          
O        O      0.053900000000     0.596450000000     0.174850000000     0          
O        O      0.096600000000     0.556500000000     0.451150000000     0          
O        O      0.101800000000     0.539000000000     0.401200000000     0          
O        O      0.037366666667     0.560400000000     0.420100000000     0          
O        O      0.095300000000     0.597250000000     0.412600000000     0          
O        O      0.049200000000     0.749700000000     0.460050000000     0          
O        O      0.054933333333     0.711750000000     0.000000000000     0          
O        O      0.231400000000     0.560050000000     0.099000000000     0          
O        O      0.295766666667     0.538450000000     0.079500000000     0          
O        O      0.239300000000     0.556250000000     0.047800000000     0          
O        O      0.279433333333     0.596450000000     0.075150000000     0          
O        O      0.236733333333     0.556500000000     0.298850000000     0          
O        O      0.231533333333     0.539000000000     0.348800000000     0          
O        O      0.295966666667     0.560400000000     0.329900000000     0          
O        O      0.238033333333     0.597250000000     0.337400000000     0          
O        O      0.284133333333     0.749700000000     0.289950000000     0          
O        O      0.278400000000     0.711750000000     0.250000000000     0          
O        O      0.101933333333     0.939950000000     0.349000000000     0          
O        O      0.037566666667     0.961550000000     0.329500000000     0          
O        O      0.094033333333     0.943750000000     0.297800000000     0          
O        O      0.053900000000     0.903550000000     0.325150000000     0          
O        O      0.096600000000     0.943500000000     0.048850000000     0          
O        O      0.101800000000     0.961000000000     0.098800000000     0          
O        O      0.037366666667     0.939600000000     0.079900000000     0          
O        O      0.095300000000     0.902750000000     0.087400000000     0          
O        O      0.049200000000     0.750300000000     0.039950000000     0          
O        O      0.054933333333     0.788250000000     0.000000000000     0          
O        O      0.268600000000     0.810050000000     0.099000000000     0          
O        O      0.204233333333     0.788450000000     0.079500000000     0          
O        O      0.260700000000     0.806250000000     0.047800000000     0          
O        O      0.220566666667     0.846450000000     0.075150000000     0          
O        O      0.263266666667     0.806500000000     0.298850000000     0          
O        O      0.268466666667     0.789000000000     0.348800000000     0          
O        O      0.204033333333     0.810400000000     0.329900000000     0          
O        O      0.261966666667     0.847250000000     0.337400000000     0          
O        O      0.216766666667     0.864750000000     0.125000000000     0          
O        O      0.166666666667     0.884400000000     0.090100000000     0          
O        O      0.166666666667     0.954800000000     0.285300000000     0          
O        O      0.215866666667     0.999700000000     0.289950000000     0          
O        O      0.221600000000     0.961750000000     0.250000000000     0          
O        O      0.166666666667     0.955500000000     0.034950000000     0          
O        O      0.166666666667     0.942350000000     0.375000000000     0          
O        O      0.212600000000     0.989750000000     0.375000000000     0          
O        O      0.166666666667     0.962850000000     0.125000000000     0          
O        O      0.166666666667     0.739450000000     0.093050000000     0          
O        O      0.166666666667     0.786750000000     0.125000000000     0          
O        O      0.166666666667     0.807950000000     0.375000000000     0          
O        O      0.064733333333     0.689950000000     0.349000000000     0          
O        O      0.129100000000     0.711550000000     0.329500000000     0          
O        O      0.072633333333     0.693750000000     0.297800000000     0          
O        O      0.112766666667     0.653550000000     0.325150000000     0          
O        O      0.070066666667     0.693500000000     0.048850000000     0          
O        O      0.064866666667     0.711000000000     0.098800000000     0          
O        O      0.129300000000     0.689600000000     0.079900000000     0          
O        O      0.071366666667     0.652750000000     0.087400000000     0          
O        O      0.116566666667     0.635250000000     0.375000000000     0          
O        O      0.166666666667     0.615600000000     0.340100000000     0          
O        O      0.166666666667     0.545200000000     0.035300000000     0          
O        O      0.117466666667     0.500300000000     0.039950000000     0          
O        O      0.111733333333     0.538250000000     0.000000000000     0          
O        O      0.166666666667     0.544500000000     0.284950000000     0          
O        O      0.166666666667     0.557650000000     0.125000000000     0          
O        O      0.120733333333     0.510250000000     0.125000000000     0          
O        O      0.166666666667     0.537150000000     0.375000000000     0          
O        O      0.166666666667     0.760550000000     0.343050000000     0          
O        O      0.166666666667     0.713250000000     0.375000000000     0          
O        O      0.166666666667     0.692050000000     0.125000000000     0          
O        O      0.268600000000     0.689950000000     0.401000000000     0          
O        O      0.204233333333     0.711550000000     0.420500000000     0          
O        O      0.260700000000     0.693750000000     0.452200000000     0          
O        O      0.220566666667     0.653550000000     0.424850000000     0          
O        O      0.263266666667     0.693500000000     0.201150000000     0          
O        O      0.268466666667     0.711000000000     0.151200000000     0          
O        O      0.204033333333     0.689600000000     0.170100000000     0          
O        O      0.261966666667     0.652750000000     0.162600000000     0          
O        O      0.216766666667     0.635250000000     0.375000000000     0          
O        O      0.166666666667     0.615600000000     0.409900000000     0          
O        O      0.166666666667     0.545200000000     0.214700000000     0          
O        O      0.215866666667     0.500300000000     0.210050000000     0          
O        O      0.221600000000     0.538250000000     0.250000000000     0          
O        O      0.166666666667     0.544500000000     0.465050000000     0          
O        O      0.212600000000     0.510250000000     0.125000000000     0          
O        O      0.166666666667     0.760550000000     0.406950000000     0          
O        O      0.064733333333     0.810050000000     0.151000000000     0          
O        O      0.129100000000     0.788450000000     0.170500000000     0          
O        O      0.072633333333     0.806250000000     0.202200000000     0          
O        O      0.112766666667     0.846450000000     0.174850000000     0          
O        O      0.070066666667     0.806500000000     0.451150000000     0          
O        O      0.064866666667     0.789000000000     0.401200000000     0          
O        O      0.129300000000     0.810400000000     0.420100000000     0          
O        O      0.071366666667     0.847250000000     0.412600000000     0          
O        O      0.116566666667     0.864750000000     0.125000000000     0          
O        O      0.166666666667     0.884400000000     0.159900000000     0          
O        O      0.166666666667     0.954800000000     0.464700000000     0          
O        O      0.117466666667     0.999700000000     0.460050000000     0          
O        O      0.111733333333     0.961750000000     0.000000000000     0          
O        O      0.166666666667     0.955500000000     0.215050000000     0          
O        O      0.120733333333     0.989750000000     0.375000000000     0          
O        O      0.166666666667     0.739450000000     0.156950000000     0          
O        O      0.064733333333     0.689950000000     0.401000000000     0          
O        O      0.129100000000     0.711550000000     0.420500000000     0          
O        O      0.072633333333     0.693750000000     0.452200000000     0          
O        O      0.112766666667     0.653550000000     0.424850000000     0          
O        O      0.070066666667     0.693500000000     0.201150000000     0          
O        O      0.064866666667     0.711000000000     0.151200000000     0          
O        O      0.129300000000     0.689600000000     0.170100000000     0          
O        O      0.071366666667     0.652750000000     0.162600000000     0          
O        O      0.117466666667     0.500300000000     0.210050000000     0          
O        O      0.111733333333     0.538250000000     0.250000000000     0          
O        O      0.268600000000     0.810050000000     0.151000000000     0          
O        O      0.204233333333     0.788450000000     0.170500000000     0          
O        O      0.260700000000     0.806250000000     0.202200000000     0          
O        O      0.220566666667     0.846450000000     0.174850000000     0          
O        O      0.263266666667     0.806500000000     0.451150000000     0          
O        O      0.268466666667     0.789000000000     0.401200000000     0          
O        O      0.204033333333     0.810400000000     0.420100000000     0          
O        O      0.261966666667     0.847250000000     0.412600000000     0          
O        O      0.215866666667     0.999700000000     0.460050000000     0          
O        O      0.221600000000     0.961750000000     0.000000000000     0          
O        O      0.064733333333     0.810050000000     0.099000000000     0          
O        O      0.129100000000     0.788450000000     0.079500000000     0          
O        O      0.072633333333     0.806250000000     0.047800000000     0          
O        O      0.112766666667     0.846450000000     0.075150000000     0          
O        O      0.070066666667     0.806500000000     0.298850000000     0          
O        O      0.064866666667     0.789000000000     0.348800000000     0          
O        O      0.129300000000     0.810400000000     0.329900000000     0          
O        O      0.071366666667     0.847250000000     0.337400000000     0          
O        O      0.117466666667     0.999700000000     0.289950000000     0          
O        O      0.111733333333     0.961750000000     0.250000000000     0          
O        O      0.268600000000     0.689950000000     0.349000000000     0          
O        O      0.204233333333     0.711550000000     0.329500000000     0          
O        O      0.260700000000     0.693750000000     0.297800000000     0          
O        O      0.220566666667     0.653550000000     0.325150000000     0          
O        O      0.263266666667     0.693500000000     0.048850000000     0          
O        O      0.268466666667     0.711000000000     0.098800000000     0          
O        O      0.204033333333     0.689600000000     0.079900000000     0          
O        O      0.261966666667     0.652750000000     0.087400000000     0          
O        O      0.215866666667     0.500300000000     0.039950000000     0          
O        O      0.221600000000     0.538250000000     0.000000000000     0          
O        O      0.101933333333     0.560050000000     0.599000000000     0          
O        O      0.037566666667     0.538450000000     0.579500000000     0          
O        O      0.094033333333     0.556250000000     0.547800000000     0          
O        O      0.053900000000     0.596450000000     0.575150000000     0          
O        O      0.096600000000     0.556500000000     0.798850000000     0          
O        O      0.101800000000     0.539000000000     0.848800000000     0          
O        O      0.037366666667     0.560400000000     0.829900000000     0          
O        O      0.095300000000     0.597250000000     0.837400000000     0          
O        O      0.050100000000     0.614750000000     0.625000000000     0          
O        O      0.000000000000     0.634400000000     0.590100000000     0          
O        O      0.000000000000     0.704800000000     0.785300000000     0          
O        O      0.049200000000     0.749700000000     0.789950000000     0          
O        O      0.054933333333     0.711750000000     0.750000000000     0          
O        O      0.000000000000     0.705500000000     0.534950000000     0          
O        O      0.000000000000     0.692350000000     0.875000000000     0          
O        O      0.045933333333     0.739750000000     0.875000000000     0          
O        O      0.000000000000     0.712850000000     0.625000000000     0          
O        O      0.000000000000     0.989450000000     0.593050000000     0          
O        O      0.000000000000     0.536750000000     0.625000000000     0          
O        O      0.000000000000     0.557950000000     0.875000000000     0          
O        O      0.231400000000     0.939950000000     0.849000000000     0          
O        O      0.295766666667     0.961550000000     0.829500000000     0          
O        O      0.239300000000     0.943750000000     0.797800000000     0          
O        O      0.279433333333     0.903550000000     0.825150000000     0          
O        O      0.236733333333     0.943500000000     0.548850000000     0          
O        O      0.231533333333     0.961000000000     0.598800000000     0          
O        O      0.295966666667     0.939600000000     0.579900000000     0          
O        O      0.238033333333     0.902750000000     0.587400000000     0          
O        O      0.283233333333     0.885250000000     0.875000000000     0          
O        O      0.000000000000     0.865600000000     0.840100000000     0          
O        O      0.000000000000     0.795200000000     0.535300000000     0          
O        O      0.284133333333     0.750300000000     0.539950000000     0          
O        O      0.278400000000     0.788250000000     0.500000000000     0          
O        O      0.000000000000     0.794500000000     0.784950000000     0          
O        O      0.000000000000     0.807650000000     0.625000000000     0          
O        O      0.287400000000     0.760250000000     0.625000000000     0          
O        O      0.000000000000     0.787150000000     0.875000000000     0          
O        O      0.000000000000     0.510550000000     0.843050000000     0          
O        O      0.000000000000     0.963250000000     0.875000000000     0          
O        O      0.000000000000     0.942050000000     0.625000000000     0          
O        O      0.101933333333     0.939950000000     0.901000000000     0          
O        O      0.037566666667     0.961550000000     0.920500000000     0          
O        O      0.094033333333     0.943750000000     0.952200000000     0          
O        O      0.053900000000     0.903550000000     0.924850000000     0          
O        O      0.096600000000     0.943500000000     0.701150000000     0          
O        O      0.101800000000     0.961000000000     0.651200000000     0          
O        O      0.037366666667     0.939600000000     0.670100000000     0          
O        O      0.095300000000     0.902750000000     0.662600000000     0          
O        O      0.050100000000     0.885250000000     0.875000000000     0          
O        O      0.000000000000     0.865600000000     0.909900000000     0          
O        O      0.000000000000     0.795200000000     0.714700000000     0          
O        O      0.049200000000     0.750300000000     0.710050000000     0          
O        O      0.054933333333     0.788250000000     0.750000000000     0          
O        O      0.000000000000     0.794500000000     0.965050000000     0          
O        O      0.045933333333     0.760250000000     0.625000000000     0          
O        O      0.000000000000     0.510550000000     0.906950000000     0          
O        O      0.231400000000     0.560050000000     0.651000000000     0          
O        O      0.295766666667     0.538450000000     0.670500000000     0          
O        O      0.239300000000     0.556250000000     0.702200000000     0          
O        O      0.279433333333     0.596450000000     0.674850000000     0          
O        O      0.236733333333     0.556500000000     0.951150000000     0          
O        O      0.231533333333     0.539000000000     0.901200000000     0          
O        O      0.295966666667     0.560400000000     0.920100000000     0          
O        O      0.238033333333     0.597250000000     0.912600000000     0          
O        O      0.283233333333     0.614750000000     0.625000000000     0          
O        O      0.000000000000     0.634400000000     0.659900000000     0          
O        O      0.000000000000     0.704800000000     0.964700000000     0          
O        O      0.284133333333     0.749700000000     0.960050000000     0          
O        O      0.278400000000     0.711750000000     0.500000000000     0          
O        O      0.000000000000     0.705500000000     0.715050000000     0          
O        O      0.287400000000     0.739750000000     0.875000000000     0          
O        O      0.000000000000     0.989450000000     0.656950000000     0          
O        O      0.231400000000     0.939950000000     0.901000000000     0          
O        O      0.295766666667     0.961550000000     0.920500000000     0          
O        O      0.239300000000     0.943750000000     0.952200000000     0          
O        O      0.279433333333     0.903550000000     0.924850000000     0          
O        O      0.236733333333     0.943500000000     0.701150000000     0          
O        O      0.231533333333     0.961000000000     0.651200000000     0          
O        O      0.295966666667     0.939600000000     0.670100000000     0          
O        O      0.238033333333     0.902750000000     0.662600000000     0          
O        O      0.284133333333     0.750300000000     0.710050000000     0          
O        O      0.278400000000     0.788250000000     0.750000000000     0          
O        O      0.101933333333     0.560050000000     0.651000000000     0          
O        O      0.037566666667     0.538450000000     0.670500000000     0          
O        O      0.094033333333     0.556250000000     0.702200000000     0          
O        O      0.053900000000     0.596450000000     0.674850000000     0          
O        O      0.096600000000     0.556500000000     0.951150000000     0          
O        O      0.101800000000     0.539000000000     0.901200000000     0          
O        O      0.037366666667     0.560400000000     0.920100000000     0          
O        O      0.095300000000     0.597250000000     0.912600000000     0          
O        O      0.049200000000     0.749700000000     0.960050000000     0          
O        O      0.054933333333     0.711750000000     0.500000000000     0          
O        O      0.231400000000     0.560050000000     0.599000000000     0          
O        O      0.295766666667     0.538450000000     0.579500000000     0          
O        O      0.239300000000     0.556250000000     0.547800000000     0          
O        O      0.279433333333     0.596450000000     0.575150000000     0          
O        O      0.236733333333     0.556500000000     0.798850000000     0          
O        O      0.231533333333     0.539000000000     0.848800000000     0          
O        O      0.295966666667     0.560400000000     0.829900000000     0          
O        O      0.238033333333     0.597250000000     0.837400000000     0          
O        O      0.284133333333     0.749700000000     0.789950000000     0          
O        O      0.278400000000     0.711750000000     0.750000000000     0          
O        O      0.101933333333     0.939950000000     0.849000000000     0          
O        O      0.037566666667     0.961550000000     0.829500000000     0          
O        O      0.094033333333     0.943750000000     0.797800000000     0          
O        O      0.053900000000     0.903550000000     0.825150000000     0          
O        O      0.096600000000     0.943500000000     0.548850000000     0          
O        O      0.101800000000     0.961000000000     0.598800000000     0          
O        O      0.037366666667     0.939600000000     0.579900000000     0          
O        O      0.095300000000     0.902750000000     0.587400000000     0          
O        O      0.049200000000     0.750300000000     0.539950000000     0          
O        O      0.054933333333     0.788250000000     0.500000000000     0          
O        O      0.268600000000     0.810050000000     0.599000000000     0          
O        O      0.204233333333     0.788450000000     0.579500000000     0          
O        O      0.260700000000     0.806250000000     0.547800000000     0          
O        O      0.220566666667     0.846450000000     0.575150000000     0          
O        O      0.263266666667     0.806500000000     0.798850000000     0          
O        O      0.268466666667     0.789000000000     0.848800000000     0          
O        O      0.204033333333     0.810400000000     0.829900000000     0          
O        O      0.261966666667     0.847250000000     0.837400000000     0          
O        O      0.216766666667     0.864750000000     0.625000000000     0          
O        O      0.166666666667     0.884400000000     0.590100000000     0          
O        O      0.166666666667     0.954800000000     0.785300000000     0          
O        O      0.215866666667     0.999700000000     0.789950000000     0          
O        O      0.221600000000     0.961750000000     0.750000000000     0          
O        O      0.166666666667     0.955500000000     0.534950000000     0          
O        O      0.166666666667     0.942350000000     0.875000000000     0          
O        O      0.212600000000     0.989750000000     0.875000000000     0          
O        O      0.166666666667     0.962850000000     0.625000000000     0          
O        O      0.166666666667     0.739450000000     0.593050000000     0          
O        O      0.166666666667     0.786750000000     0.625000000000     0          
O        O      0.166666666667     0.807950000000     0.875000000000     0          
O        O      0.064733333333     0.689950000000     0.849000000000     0          
O        O      0.129100000000     0.711550000000     0.829500000000     0          
O        O      0.072633333333     0.693750000000     0.797800000000     0          
O        O      0.112766666667     0.653550000000     0.825150000000     0          
O        O      0.070066666667     0.693500000000     0.548850000000     0          
O        O      0.064866666667     0.711000000000     0.598800000000     0          
O        O      0.129300000000     0.689600000000     0.579900000000     0          
O        O      0.071366666667     0.652750000000     0.587400000000     0          
O        O      0.116566666667     0.635250000000     0.875000000000     0          
O        O      0.166666666667     0.615600000000     0.840100000000     0          
O        O      0.166666666667     0.545200000000     0.535300000000     0          
O        O      0.117466666667     0.500300000000     0.539950000000     0          
O        O      0.111733333333     0.538250000000     0.500000000000     0          
O        O      0.166666666667     0.544500000000     0.784950000000     0          
O        O      0.166666666667     0.557650000000     0.625000000000     0          
O        O      0.120733333333     0.510250000000     0.625000000000     0          
O        O      0.166666666667     0.537150000000     0.875000000000     0          
O        O      0.166666666667     0.760550000000     0.843050000000     0          
O        O      0.166666666667     0.713250000000     0.875000000000     0          
O        O      0.166666666667     0.692050000000     0.625000000000     0          
O        O      0.268600000000     0.689950000000     0.901000000000     0          
O        O      0.204233333333     0.711550000000     0.920500000000     0          
O        O      0.260700000000     0.693750000000     0.952200000000     0          
O        O      0.220566666667     0.653550000000     0.924850000000     0          
O        O      0.263266666667     0.693500000000     0.701150000000     0          
O        O      0.268466666667     0.711000000000     0.651200000000     0          
O        O      0.204033333333     0.689600000000     0.670100000000     0          
O        O      0.261966666667     0.652750000000     0.662600000000     0          
O        O      0.216766666667     0.635250000000     0.875000000000     0          
O        O      0.166666666667     0.615600000000     0.909900000000     0          
O        O      0.166666666667     0.545200000000     0.714700000000     0          
O        O      0.215866666667     0.500300000000     0.710050000000     0          
O        O      0.221600000000     0.538250000000     0.750000000000     0          
O        O      0.166666666667     0.544500000000     0.965050000000     0          
O        O      0.212600000000     0.510250000000     0.625000000000     0          
O        O      0.166666666667     0.760550000000     0.906950000000     0          
O        O      0.064733333333     0.810050000000     0.651000000000     0          
O        O      0.129100000000     0.788450000000     0.670500000000     0          
O        O      0.072633333333     0.806250000000     0.702200000000     0          
O        O      0.112766666667     0.846450000000     0.674850000000     0          
O        O      0.070066666667     0.806500000000     0.951150000000     0          
O        O      0.064866666667     0.789000000000     0.901200000000     0          
O        O      0.129300000000     0.810400000000     0.920100000000     0          
O        O      0.071366666667     0.847250000000     0.912600000000     0          
O        O      0.116566666667     0.864750000000     0.625000000000     0          
O        O      0.166666666667     0.884400000000     0.659900000000     0          
O        O      0.166666666667     0.954800000000     0.964700000000     0          
O        O      0.117466666667     0.999700000000     0.960050000000     0          
O        O      0.111733333333     0.961750000000     0.500000000000     0          
O        O      0.166666666667     0.955500000000     0.715050000000     0          
O        O      0.120733333333     0.989750000000     0.875000000000     0          
O        O      0.166666666667     0.739450000000     0.656950000000     0          
O        O      0.064733333333     0.689950000000     0.901000000000     0          
O        O      0.129100000000     0.711550000000     0.920500000000     0          
O        O      0.072633333333     0.693750000000     0.952200000000     0          
O        O      0.112766666667     0.653550000000     0.924850000000     0          
O        O      0.070066666667     0.693500000000     0.701150000000     0          
O        O      0.064866666667     0.711000000000     0.651200000000     0          
O        O      0.129300000000     0.689600000000     0.670100000000     0          
O        O      0.071366666667     0.652750000000     0.662600000000     0          
O        O      0.117466666667     0.500300000000     0.710050000000     0          
O        O      0.111733333333     0.538250000000     0.750000000000     0          
O        O      0.268600000000     0.810050000000     0.651000000000     0          
O        O      0.204233333333     0.788450000000     0.670500000000     0          
O        O      0.260700000000     0.806250000000     0.702200000000     0          
O        O      0.220566666667     0.846450000000     0.674850000000     0          
O        O      0.263266666667     0.806500000000     0.951150000000     0          
O        O      0.268466666667     0.789000000000     0.901200000000     0          
O        O      0.204033333333     0.810400000000     0.920100000000     0          
O        O      0.261966666667     0.847250000000     0.912600000000     0          
O        O      0.215866666667     0.999700000000     0.960050000000     0          
O        O      0.221600000000     0.961750000000     0.500000000000     0          
O        O      0.064733333333     0.810050000000     0.599000000000     0          
O        O      0.129100000000     0.788450000000     0.579500000000     0          
O        O      0.072633333333     0.806250000000     0.547800000000     0          
O        O      0.112766666667     0.846450000000     0.575150000000     0          
O        O      0.070066666667     0.806500000000     0.798850000000     0          
O        O      0.064866666667     0.789000000000     0.848800000000     0          
O        O      0.129300000000     0.810400000000     0.829900000000     0          
O        O      0.071366666667     0.847250000000     0.837400000000     0          
O        O      0.117466666667     0.999700000000     0.789950000000     0          
O        O      0.111733333333     0.961750000000     0.750000000000     0          
O        O      0.268600000000     0.689950000000     0.849000000000     0          
O        O      0.204233333333     0.711550000000     0.829500000000     0          
O        O      0.260700000000     0.693750000000     0.797800000000     0          
O        O      0.220566666667     0.653550000000     0.825150000000     0          
O        O      0.263266666667     0.693500000000     0.548850000000     0          
O        O      0.268466666667     0.711000000000     0.598800000000     0          
O        O      0.204033333333     0.689600000000     0.579900000000     0          
O        O      0.261966666667     0.652750000000     0.587400000000     0          
O        O      0.215866666667     0.500300000000     0.539950000000     0          
O        O      0.221600000000     0.538250000000     0.500000000000     0          
O        O      0.435266666667     0.060050000000     0.099000000000     0          
O        O      0.370900000000     0.038450000000     0.079500000000     0          
O        O      0.427366666667     0.056250000000     0.047800000000     0          
O        O      0.387233333333     0.096450000000     0.075150000000     0          
O        O      0.429933333333     0.056500000000     0.298850000000     0          
O        O      0.435133333333     0.039000000000     0.348800000000     0          
O        O      0.370700000000     0.060400000000     0.329900000000     0          
O        O      0.428633333333     0.097250000000     0.337400000000     0          
O        O      0.383433333333     0.114750000000     0.125000000000     0          
O        O      0.333333333333     0.134400000000     0.090100000000     0          
O        O      0.333333333333     0.204800000000     0.285300000000     0          
O        O      0.382533333333     0.249700000000     0.289950000000     0          
O        O      0.388266666667     0.211750000000     0.250000000000     0          
O        O      0.333333333333     0.205500000000     0.034950000000     0          
O        O      0.333333333333     0.192350000000     0.375000000000     0          
O        O      0.379266666667     0.239750000000     0.375000000000     0          
O        O      0.333333333333     0.212850000000     0.125000000000     0          
O        O      0.333333333333     0.489450000000     0.093050000000     0          
O        O      0.333333333333     0.036750000000     0.125000000000     0          
O        O      0.333333333333     0.057950000000     0.375000000000     0          
O        O      0.564733333333     0.439950000000     0.349000000000     0          
O        O      0.629100000000     0.461550000000     0.329500000000     0          
O        O      0.572633333333     0.443750000000     0.297800000000     0          
O        O      0.612766666667     0.403550000000     0.325150000000     0          
O        O      0.570066666667     0.443500000000     0.048850000000     0          
O        O      0.564866666667     0.461000000000     0.098800000000     0          
O        O      0.629300000000     0.439600000000     0.079900000000     0          
O        O      0.571366666667     0.402750000000     0.087400000000     0          
O        O      0.616566666667     0.385250000000     0.375000000000     0          
O        O      0.333333333333     0.365600000000     0.340100000000     0          
O        O      0.333333333333     0.295200000000     0.035300000000     0          
O        O      0.617466666667     0.250300000000     0.039950000000     0          
O        O      0.611733333333     0.288250000000     0.000000000000     0          
O        O      0.333333333333     0.294500000000     0.284950000000     0          
O        O      0.333333333333     0.307650000000     0.125000000000     0          
O        O      0.620733333333     0.260250000000     0.125000000000     0          
O        O      0.333333333333     0.287150000000     0.375000000000     0          
O        O      0.333333333333     0.010550000000     0.343050000000     0          
O        O      0.333333333333     0.463250000000     0.375000000000     0          
O        O      0.333333333333     0.442050000000     0.125000000000     0          
O        O      0.435266666667     0.439950000000     0.401000000000     0          
O        O      0.370900000000     0.461550000000     0.420500000000     0          
O        O      0.427366666667     0.443750000000     0.452200000000     0          
O        O      0.387233333333     0.403550000000     0.424850000000     0          
O        O      0.429933333333     0.443500000000     0.201150000000     0          
O        O      0.435133333333     0.461000000000     0.151200000000     0          
O        O      0.370700000000     0.439600000000     0.170100000000     0          
O        O      0.428633333333     0.402750000000     0.162600000000     0          
O        O      0.383433333333     0.385250000000     0.375000000000     0          
O        O      0.333333333333     0.365600000000     0.409900000000     0          
O        O      0.333333333333     0.295200000000     0.214700000000     0          
O        O      0.382533333333     0.250300000000     0.210050000000     0          
O        O      0.388266666667     0.288250000000     0.250000000000     0          
O        O      0.333333333333     0.294500000000     0.465050000000     0          
O        O      0.379266666667     0.260250000000     0.125000000000     0          
O        O      0.333333333333     0.010550000000     0.406950000000     0          
O        O      0.564733333333     0.060050000000     0.151000000000     0          
O        O      0.629100000000     0.038450000000     0.170500000000     0          
O        O      0.572633333333     0.056250000000     0.202200000000     0          
O        O      0.612766666667     0.096450000000     0.174850000000     0          
O        O      0.570066666667     0.056500000000     0.451150000000     0          
O        O      0.564866666667     0.039000000000     0.401200000000     0          
O        O      0.629300000000     0.060400000000     0.420100000000     0          
O        O      0.571366666667     0.097250000000     0.412600000000     0          
O        O      0.616566666667     0.114750000000     0.125000000000     0          
O        O      0.333333333333     0.134400000000     0.159900000000     0          
O        O      0.333333333333     0.204800000000     0.464700000000     0          
O        O      0.617466666667     0.249700000000     0.460050000000     0          
O        O      0.611733333333     0.211750000000     0.000000000000     0          
O        O      0.333333333333     0.205500000000     0.215050000000     0          
O        O      0.620733333333     0.239750000000     0.375000000000     0          
O        O      0.333333333333     0.489450000000     0.156950000000     0          
O        O      0.564733333333     0.439950000000     0.401000000000     0          
O        O      0.629100000000     0.461550000000     0.420500000000     0          
O        O      0.572633333333     0.443750000000     0.452200000000     0          
O        O      0.612766666667     0.403550000000     0.424850000000     0          
O        O      0.570066666667     0.443500000000     0.201150000000     0          
O        O      0.564866666667     0.461000000000     0.151200000000     0          
O        O      0.629300000000     0.439600000000     0.170100000000     0          
O        O      0.571366666667     0.402750000000     0.162600000000     0          
O        O      0.617466666667     0.250300000000     0.210050000000     0          
O        O      0.611733333333     0.288250000000     0.250000000000     0          
O        O      0.435266666667     0.060050000000     0.151000000000     0          
O        O      0.370900000000     0.038450000000     0.170500000000     0          
O        O      0.427366666667     0.056250000000     0.202200000000     0          
O        O      0.387233333333     0.096450000000     0.174850000000     0          
O        O      0.429933333333     0.056500000000     0.451150000000     0          
O        O      0.435133333333     0.039000000000     0.401200000000     0          
O        O      0.370700000000     0.060400000000     0.420100000000     0          
O        O      0.428633333333     0.097250000000     0.412600000000     0          
O        O      0.382533333333     0.249700000000     0.460050000000     0          
O        O      0.388266666667     0.211750000000     0.000000000000     0          
O        O      0.564733333333     0.060050000000     0.099000000000     0          
O        O      0.629100000000     0.038450000000     0.079500000000     0          
O        O      0.572633333333     0.056250000000     0.047800000000     0          
O        O      0.612766666667     0.096450000000     0.075150000000     0          
O        O      0.570066666667     0.056500000000     0.298850000000     0          
O        O      0.564866666667     0.039000000000     0.348800000000     0          
O        O      0.629300000000     0.060400000000     0.329900000000     0          
O        O      0.571366666667     0.097250000000     0.337400000000     0          
O        O      0.617466666667     0.249700000000     0.289950000000     0          
O        O      0.611733333333     0.211750000000     0.250000000000     0          
O        O      0.435266666667     0.439950000000     0.349000000000     0          
O        O      0.370900000000     0.461550000000     0.329500000000     0          
O        O      0.427366666667     0.443750000000     0.297800000000     0          
O        O      0.387233333333     0.403550000000     0.325150000000     0          
O        O      0.429933333333     0.443500000000     0.048850000000     0          
O        O      0.435133333333     0.461000000000     0.098800000000     0          
O        O      0.370700000000     0.439600000000     0.079900000000     0          
O        O      0.428633333333     0.402750000000     0.087400000000     0          
O        O      0.382533333333     0.250300000000     0.039950000000     0          
O        O      0.388266666667     0.288250000000     0.000000000000     0          
O        O      0.601933333333     0.310050000000     0.099000000000     0          
O        O      0.537566666667     0.288450000000     0.079500000000     0          
O        O      0.594033333333     0.306250000000     0.047800000000     0          
O        O      0.553900000000     0.346450000000     0.075150000000     0          
O        O      0.596600000000     0.306500000000     0.298850000000     0          
O        O      0.601800000000     0.289000000000     0.348800000000     0          
O        O      0.537366666667     0.310400000000     0.329900000000     0          
O        O      0.595300000000     0.347250000000     0.337400000000     0          
O        O      0.550100000000     0.364750000000     0.125000000000     0          
O        O      0.500000000000     0.384400000000     0.090100000000     0          
O        O      0.500000000000     0.454800000000     0.285300000000     0          
O        O      0.549200000000     0.499700000000     0.289950000000     0          
O        O      0.554933333333     0.461750000000     0.250000000000     0          
O        O      0.500000000000     0.455500000000     0.034950000000     0          
O        O      0.500000000000     0.442350000000     0.375000000000     0          
O        O      0.545933333333     0.489750000000     0.375000000000     0          
O        O      0.500000000000     0.462850000000     0.125000000000     0          
O        O      0.500000000000     0.239450000000     0.093050000000     0          
O        O      0.500000000000     0.286750000000     0.125000000000     0          
O        O      0.500000000000     0.307950000000     0.375000000000     0          
O        O      0.398066666667     0.189950000000     0.349000000000     0          
O        O      0.462433333333     0.211550000000     0.329500000000     0          
O        O      0.405966666667     0.193750000000     0.297800000000     0          
O        O      0.446100000000     0.153550000000     0.325150000000     0          
O        O      0.403400000000     0.193500000000     0.048850000000     0          
O        O      0.398200000000     0.211000000000     0.098800000000     0          
O        O      0.462633333333     0.189600000000     0.079900000000     0          
O        O      0.404700000000     0.152750000000     0.087400000000     0          
O        O      0.449900000000     0.135250000000     0.375000000000     0          
O        O      0.500000000000     0.115600000000     0.340100000000     0          
O        O      0.500000000000     0.045200000000     0.035300000000     0          
O        O      0.450800000000     0.000300000000     0.039950000000     0          
O        O      0.445066666667     0.038250000000     0.000000000000     0          
O        O      0.500000000000     0.044500000000     0.284950000000     0          
O        O      0.500000000000     0.057650000000     0.125000000000     0          
O        O      0.454066666667     0.010250000000     0.125000000000     0          
O        O      0.500000000000     0.037150000000     0.375000000000     0          
O        O      0.500000000000     0.260550000000     0.343050000000     0          
O        O      0.500000000000     0.213250000000     0.375000000000     0          
O        O      0.500000000000     0.192050000000     0.125000000000     0          
O        O      0.601933333333     0.189950000000     0.401000000000     0          
O        O      0.537566666667     0.211550000000     0.420500000000     0          
O        O      0.594033333333     0.193750000000     0.452200000000     0          
O        O      0.553900000000     0.153550000000     0.424850000000     0          
O        O      0.596600000000     0.193500000000     0.201150000000     0          
O        O      0.601800000000     0.211000000000     0.151200000000     0          
O        O      0.537366666667     0.189600000000     0.170100000000     0          
O        O      0.595300000000     0.152750000000     0.162600000000     0          
O        O      0.550100000000     0.135250000000     0.375000000000     0          
O        O      0.500000000000     0.115600000000     0.409900000000     0          
O        O      0.500000000000     0.045200000000     0.214700000000     0          
O        O      0.549200000000     0.000300000000     0.210050000000     0          
O        O      0.554933333333     0.038250000000     0.250000000000     0          
O        O      0.500000000000     0.044500000000     0.465050000000     0          
O        O      0.545933333333     0.010250000000     0.125000000000     0          
O        O      0.500000000000     0.260550000000     0.406950000000     0          
O        O      0.398066666667     0.310050000000     0.151000000000     0          
O        O      0.462433333333     0.288450000000     0.170500000000     0          
O        O      0.405966666667     0.306250000000     0.202200000000     0          
O        O      0.446100000000     0.346450000000     0.174850000000     0          
O        O      0.403400000000     0.306500000000     0.451150000000     0          
O        O      0.398200000000     0.289000000000     0.401200000000     0          
O        O      0.462633333333     0.310400000000     0.420100000000     0          
O        O      0.404700000000     0.347250000000     0.412600000000     0          
O        O      0.449900000000     0.364750000000     0.125000000000     0          
O        O      0.500000000000     0.384400000000     0.159900000000     0          
O        O      0.500000000000     0.454800000000     0.464700000000     0          
O        O      0.450800000000     0.499700000000     0.460050000000     0          
O        O      0.445066666667     0.461750000000     0.000000000000     0          
O        O      0.500000000000     0.455500000000     0.215050000000     0          
O        O      0.454066666667     0.489750000000     0.375000000000     0          
O        O      0.500000000000     0.239450000000     0.156950000000     0          
O        O      0.398066666667     0.189950000000     0.401000000000     0          
O        O      0.462433333333     0.211550000000     0.420500000000     0          
O        O      0.405966666667     0.193750000000     0.452200000000     0          
O        O      0.446100000000     0.153550000000     0.424850000000     0          
O        O      0.403400000000     0.193500000000     0.201150000000     0          
O        O      0.398200000000     0.211000000000     0.151200000000     0          
O        O      0.462633333333     0.189600000000     0.170100000000     0          
O        O      0.404700000000     0.152750000000     0.162600000000     0          
O        O      0.450800000000     0.000300000000     0.210050000000     0          
O        O      0.445066666667     0.038250000000     0.250000000000     0          
O        O      0.601933333333     0.310050000000     0.151000000000     0          
O        O      0.537566666667     0.288450000000     0.170500000000     0          
O        O      0.594033333333     0.306250000000     0.202200000000     0          
O        O      0.553900000000     0.346450000000     0.174850000000     0          
O        O      0.596600000000     0.306500000000     0.451150000000     0          
O        O      0.601800000000     0.289000000000     0.401200000000     0          
O        O      0.537366666667     0.310400000000     0.420100000000     0          
O        O      0.595300000000     0.347250000000     0.412600000000     0          
O        O      0.549200000000     0.499700000000     0.460050000000     0          
O        O      0.554933333333     0.461750000000     0.000000000000     0          
O        O      0.398066666667     0.310050000000     0.099000000000     0          
O        O      0.462433333333     0.288450000000     0.079500000000     0          
O        O      0.405966666667     0.306250000000     0.047800000000     0          
O        O      0.446100000000     0.346450000000     0.075150000000     0          
O        O      0.403400000000     0.306500000000     0.298850000000     0          
O        O      0.398200000000     0.289000000000     0.348800000000     0          
O        O      0.462633333333     0.310400000000     0.329900000000     0          
O        O      0.404700000000     0.347250000000     0.337400000000     0          
O        O      0.450800000000     0.499700000000     0.289950000000     0          
O        O      0.445066666667     0.461750000000     0.250000000000     0          
O        O      0.601933333333     0.189950000000     0.349000000000     0          
O        O      0.537566666667     0.211550000000     0.329500000000     0          
O        O      0.594033333333     0.193750000000     0.297800000000     0          
O        O      0.553900000000     0.153550000000     0.325150000000     0          
O        O      0.596600000000     0.193500000000     0.048850000000     0          
O        O      0.601800000000     0.211000000000     0.098800000000     0          
O        O      0.537366666667     0.189600000000     0.079900000000     0          
O        O      0.595300000000     0.152750000000     0.087400000000     0          
O        O      0.549200000000     0.000300000000     0.039950000000     0          
O        O      0.554933333333     0.038250000000     0.000000000000     0          
O        O      0.435266666667     0.060050000000     0.599000000000     0          
O        O      0.370900000000     0.038450000000     0.579500000000     0          
O        O      0.427366666667     0.056250000000     0.547800000000     0          
O        O      0.387233333333     0.096450000000     0.575150000000     0          
O        O      0.429933333333     0.056500000000     0.798850000000     0          
O        O      0.435133333333     0.039000000000     0.848800000000     0          
O        O      0.370700000000     0.060400000000     0.829900000000     0          
O        O      0.428633333333     0.097250000000     0.837400000000     0          
O        O      0.383433333333     0.114750000000     0.625000000000     0          
O        O      0.333333333333     0.134400000000     0.590100000000     0          
O        O      0.333333333333     0.204800000000     0.785300000000     0          
O        O      0.382533333333     0.249700000000     0.789950000000     0          
O        O      0.388266666667     0.211750000000     0.750000000000     0          
O        O      0.333333333333     0.205500000000     0.534950000000     0          
O        O      0.333333333333     0.192350000000     0.875000000000     0          
O        O      0.379266666667     0.239750000000     0.875000000000     0          
O        O      0.333333333333     0.212850000000     0.625000000000     0          
O        O      0.333333333333     0.489450000000     0.593050000000     0          
O        O      0.333333333333     0.036750000000     0.625000000000     0          
O        O      0.333333333333     0.057950000000     0.875000000000     0          
O        O      0.564733333333     0.439950000000     0.849000000000     0          
O        O      0.629100000000     0.461550000000     0.829500000000     0          
O        O      0.572633333333     0.443750000000     0.797800000000     0          
O        O      0.612766666667     0.403550000000     0.825150000000     0          
O        O      0.570066666667     0.443500000000     0.548850000000     0          
O        O      0.564866666667     0.461000000000     0.598800000000     0          
O        O      0.629300000000     0.439600000000     0.579900000000     0          
O        O      0.571366666667     0.402750000000     0.587400000000     0          
O        O      0.616566666667     0.385250000000     0.875000000000     0          
O        O      0.333333333333     0.365600000000     0.840100000000     0          
O        O      0.333333333333     0.295200000000     0.535300000000     0          
O        O      0.617466666667     0.250300000000     0.539950000000     0          
O        O      0.611733333333     0.288250000000     0.500000000000     0          
O        O      0.333333333333     0.294500000000     0.784950000000     0          
O        O      0.333333333333     0.307650000000     0.625000000000     0          
O        O      0.620733333333     0.260250000000     0.625000000000     0          
O        O      0.333333333333     0.287150000000     0.875000000000     0          
O        O      0.333333333333     0.010550000000     0.843050000000     0          
O        O      0.333333333333     0.463250000000     0.875000000000     0          
O        O      0.333333333333     0.442050000000     0.625000000000     0          
O        O      0.435266666667     0.439950000000     0.901000000000     0          
O        O      0.370900000000     0.461550000000     0.920500000000     0          
O        O      0.427366666667     0.443750000000     0.952200000000     0          
O        O      0.387233333333     0.403550000000     0.924850000000     0          
O        O      0.429933333333     0.443500000000     0.701150000000     0          
O        O      0.435133333333     0.461000000000     0.651200000000     0          
O        O      0.370700000000     0.439600000000     0.670100000000     0          
O        O      0.428633333333     0.402750000000     0.662600000000     0          
O        O      0.383433333333     0.385250000000     0.875000000000     0          
O        O      0.333333333333     0.365600000000     0.909900000000     0          
O        O      0.333333333333     0.295200000000     0.714700000000     0          
O        O      0.382533333333     0.250300000000     0.710050000000     0          
O        O      0.388266666667     0.288250000000     0.750000000000     0          
O        O      0.333333333333     0.294500000000     0.965050000000     0          
O        O      0.379266666667     0.260250000000     0.625000000000     0          
O        O      0.333333333333     0.010550000000     0.906950000000     0          
O        O      0.564733333333     0.060050000000     0.651000000000     0          
O        O      0.629100000000     0.038450000000     0.670500000000     0          
O        O      0.572633333333     0.056250000000     0.702200000000     0          
O        O      0.612766666667     0.096450000000     0.674850000000     0          
O        O      0.570066666667     0.056500000000     0.951150000000     0          
O        O      0.564866666667     0.039000000000     0.901200000000     0          
O        O      0.629300000000     0.060400000000     0.920100000000     0          
O        O      0.571366666667     0.097250000000     0.912600000000     0          
O        O      0.616566666667     0.114750000000     0.625000000000     0          
O        O      0.333333333333     0.134400000000     0.659900000000     0          
O        O      0.333333333333     0.204800000000     0.964700000000     0          
O        O      0.617466666667     0.249700000000     0.960050000000     0          
O        O      0.611733333333     0.211750000000     0.500000000000     0          
O        O      0.333333333333     0.205500000000     0.715050000000     0          
O        O      0.620733333333     0.239750000000     0.875000000000     0          
O        O      0.333333333333     0.489450000000     0.656950000000     0          
O        O      0.564733333333     0.439950000000     0.901000000000     0          
O        O      0.629100000000     0.461550000000     0.920500000000     0          
O        O      0.572633333333     0.443750000000     0.952200000000     0          
O        O      0.612766666667     0.403550000000     0.924850000000     0          
O        O      0.570066666667     0.443500000000     0.701150000000     0          
O        O      0.564866666667     0.461000000000     0.651200000000     0          
O        O      0.629300000000     0.439600000000     0.670100000000     0          
O        O      0.571366666667     0.402750000000     0.662600000000     0          
O        O      0.617466666667     0.250300000000     0.710050000000     0          
O        O      0.611733333333     0.288250000000     0.750000000000     0          
O        O      0.435266666667     0.060050000000     0.651000000000     0          
O        O      0.370900000000     0.038450000000     0.670500000000     0          
O        O      0.427366666667     0.056250000000     0.702200000000     0          
O        O      0.387233333333     0.096450000000     0.674850000000     0          
O        O      0.429933333333     0.056500000000     0.951150000000     0          
O        O      0.435133333333     0.039000000000     0.901200000000     0          
O        O      0.370700000000     0.060400000000     0.920100000000     0          
O        O      0.428633333333     0.097250000000     0.912600000000     0          
O        O      0.382533333333     0.249700000000     0.960050000000     0          
O        O      0.388266666667     0.211750000000     0.500000000000     0          
O        O      0.564733333333     0.060050000000     0.599000000000     0          
O        O      0.629100000000     0.038450000000     0.579500000000     0          
O        O      0.572633333333     0.056250000000     0.547800000000     0          
O        O      0.612766666667     0.096450000000     0.575150000000     0          
O        O      0.570066666667     0.056500000000     0.798850000000     0          
O        O      0.564866666667     0.039000000000     0.848800000000     0          
O        O      0.629300000000     0.060400000000     0.829900000000     0          
O        O      0.571366666667     0.097250000000     0.837400000000     0          
O        O      0.617466666667     0.249700000000     0.789950000000     0          
O        O      0.611733333333     0.211750000000     0.750000000000     0          
O        O      0.435266666667     0.439950000000     0.849000000000     0          
O        O      0.370900000000     0.461550000000     0.829500000000     0          
O        O      0.427366666667     0.443750000000     0.797800000000     0          
O        O      0.387233333333     0.403550000000     0.825150000000     0          
O        O      0.429933333333     0.443500000000     0.548850000000     0          
O        O      0.435133333333     0.461000000000     0.598800000000     0          
O        O      0.370700000000     0.439600000000     0.579900000000     0          
O        O      0.428633333333     0.402750000000     0.587400000000     0          
O        O      0.382533333333     0.250300000000     0.539950000000     0          
O        O      0.388266666667     0.288250000000     0.500000000000     0          
O        O      0.601933333333     0.310050000000     0.599000000000     0          
O        O      0.537566666667     0.288450000000     0.579500000000     0          
O        O      0.594033333333     0.306250000000     0.547800000000     0          
O        O      0.553900000000     0.346450000000     0.575150000000     0          
O        O      0.596600000000     0.306500000000     0.798850000000     0          
O        O      0.601800000000     0.289000000000     0.848800000000     0          
O        O      0.537366666667     0.310400000000     0.829900000000     0          
O        O      0.595300000000     0.347250000000     0.837400000000     0          
O        O      0.550100000000     0.364750000000     0.625000000000     0          
O        O      0.500000000000     0.384400000000     0.590100000000     0          
O        O      0.500000000000     0.454800000000     0.785300000000     0          
O        O      0.549200000000     0.499700000000     0.789950000000     0          
O        O      0.554933333333     0.461750000000     0.750000000000     0          
O        O      0.500000000000     0.455500000000     0.534950000000     0          
O        O      0.500000000000     0.442350000000     0.875000000000     0          
O        O      0.545933333333     0.489750000000     0.875000000000     0          
O        O      0.500000000000     0.462850000000     0.625000000000     0          
O        O      0.500000000000     0.239450000000     0.593050000000     0          
O        O      0.500000000000     0.286750000000     0.625000000000     0          
O        O      0.500000000000     0.307950000000     0.875000000000     0          
O        O      0.398066666667     0.189950000000     0.849000000000     0          
O        O      0.462433333333     0.211550000000     0.829500000000     0          
O        O      0.405966666667     0.193750000000     0.797800000000     0          
O        O      0.446100000000     0.153550000000     0.825150000000     0          
O        O      0.403400000000     0.193500000000     0.548850000000     0          
O        O      0.398200000000     0.211000000000     0.598800000000     0          
O        O      0.462633333333     0.189600000000     0.579900000000     0          
O        O      0.404700000000     0.152750000000     0.587400000000     0          
O        O      0.449900000000     0.135250000000     0.875000000000     0          
O        O      0.500000000000     0.115600000000     0.840100000000     0          
O        O      0.500000000000     0.045200000000     0.535300000000     0          
O        O      0.450800000000     0.000300000000     0.539950000000     0          
O        O      0.445066666667     0.038250000000     0.500000000000     0          
O        O      0.500000000000     0.044500000000     0.784950000000     0          
O        O      0.500000000000     0.057650000000     0.625000000000     0          
O        O      0.454066666667     0.010250000000     0.625000000000     0          
O        O      0.500000000000     0.037150000000     0.875000000000     0          
O        O      0.500000000000     0.260550000000     0.843050000000     0          
O        O      0.500000000000     0.213250000000     0.875000000000     0          
O        O      0.500000000000     0.192050000000     0.625000000000     0          
O        O      0.601933333333     0.189950000000     0.901000000000     0          
O        O      0.537566666667     0.211550000000     0.920500000000     0          
O        O      0.594033333333     0.193750000000     0.952200000000     0          
O        O      0.553900000000     0.153550000000     0.924850000000     0          
O        O      0.596600000000     0.193500000000     0.701150000000     0          
O        O      0.601800000000     0.211000000000     0.651200000000     0          
O        O      0.537366666667     0.189600000000     0.670100000000     0          
O        O      0.595300000000     0.152750000000     0.662600000000     0          
O        O      0.550100000000     0.135250000000     0.875000000000     0          
O        O      0.500000000000     0.115600000000     0.909900000000     0          
O        O      0.500000000000     0.045200000000     0.714700000000     0          
O        O      0.549200000000     0.000300000000     0.710050000000     0          
O        O      0.554933333333     0.038250000000     0.750000000000     0          
O        O      0.500000000000     0.044500000000     0.965050000000     0          
O        O      0.545933333333     0.010250000000     0.625000000000     0          
O        O      0.500000000000     0.260550000000     0.906950000000     0          
O        O      0.398066666667     0.310050000000     0.651000000000     0          
O        O      0.462433333333     0.288450000000     0.670500000000     0          
O        O      0.405966666667     0.306250000000     0.702200000000     0          
O        O      0.446100000000     0.346450000000     0.674850000000     0          
O        O      0.403400000000     0.306500000000     0.951150000000     0          
O        O      0.398200000000     0.289000000000     0.901200000000     0          
O        O      0.462633333333     0.310400000000     0.920100000000     0          
O        O      0.404700000000     0.347250000000     0.912600000000     0          
O        O      0.449900000000     0.364750000000     0.625000000000     0          
O        O      0.500000000000     0.384400000000     0.659900000000     0          
O        O      0.500000000000     0.454800000000     0.964700000000     0          
O        O      0.450800000000     0.499700000000     0.960050000000     0          
O        O      0.445066666667     0.461750000000     0.500000000000     0          
O        O      0.500000000000     0.455500000000     0.715050000000     0          
O        O      0.454066666667     0.489750000000     0.875000000000     0          
O        O      0.500000000000     0.239450000000     0.656950000000     0          
O        O      0.398066666667     0.189950000000     0.901000000000     0          
O        O      0.462433333333     0.211550000000     0.920500000000     0          
O        O      0.405966666667     0.193750000000     0.952200000000     0          
O        O      0.446100000000     0.153550000000     0.924850000000     0          
O        O      0.403400000000     0.193500000000     0.701150000000     0          
O        O      0.398200000000     0.211000000000     0.651200000000     0          
O        O      0.462633333333     0.189600000000     0.670100000000     0          
O        O      0.404700000000     0.152750000000     0.662600000000     0          
O        O      0.450800000000     0.000300000000     0.710050000000     0          
O        O      0.445066666667     0.038250000000     0.750000000000     0          
O        O      0.601933333333     0.310050000000     0.651000000000     0          
O        O      0.537566666667     0.288450000000     0.670500000000     0          
O        O      0.594033333333     0.306250000000     0.702200000000     0          
O        O      0.553900000000     0.346450000000     0.674850000000     0          
O        O      0.596600000000     0.306500000000     0.951150000000     0          
O        O      0.601800000000     0.289000000000     0.901200000000     0          
O        O      0.537366666667     0.310400000000     0.920100000000     0          
O        O      0.595300000000     0.347250000000     0.912600000000     0          
O        O      0.549200000000     0.499700000000     0.960050000000     0          
O        O      0.554933333333     0.461750000000     0.500000000000     0          
O        O      0.398066666667     0.310050000000     0.599000000000     0          
O        O      0.462433333333     0.288450000000     0.579500000000     0          
O        O      0.405966666667     0.306250000000     0.547800000000     0          
O        O      0.446100000000     0.346450000000     0.575150000000     0          
O        O      0.403400000000     0.306500000000     0.798850000000     0          
O        O      0.398200000000     0.289000000000     0.848800000000     0          
O        O      0.462633333333     0.310400000000     0.829900000000     0          
O        O      0.404700000000     0.347250000000     0.837400000000     0          
O        O      0.450800000000     0.499700000000     0.789950000000     0          
O        O      0.445066666667     0.461750000000     0.750000000000     0          
O        O      0.601933333333     0.189950000000     0.849000000000     0          
O        O      0.537566666667     0.211550000000     0.829500000000     0          
O        O      0.594033333333     0.193750000000     0.797800000000     0          
O        O      0.553900000000     0.153550000000     0.825150000000     0          
O        O      0.596600000000     0.193500000000     0.548850000000     0          
O        O      0.601800000000     0.211000000000     0.598800000000     0          
O        O      0.537366666667     0.189600000000     0.579900000000     0          
O        O      0.595300000000     0.152750000000     0.587400000000     0          
O        O      0.549200000000     0.000300000000     0.539950000000     0          
O        O      0.554933333333     0.038250000000     0.500000000000     0          
O        O      0.435266666667     0.560050000000     0.099000000000     0          
O        O      0.370900000000     0.538450000000     0.079500000000     0          
O        O      0.427366666667     0.556250000000     0.047800000000     0          
O        O      0.387233333333     0.596450000000     0.075150000000     0          
O        O      0.429933333333     0.556500000000     0.298850000000     0          
O        O      0.435133333333     0.539000000000     0.348800000000     0          
O        O      0.370700000000     0.560400000000     0.329900000000     0          
O        O      0.428633333333     0.597250000000     0.337400000000     0          
O        O      0.383433333333     0.614750000000     0.125000000000     0          
O        O      0.333333333333     0.634400000000     0.090100000000     0          
O        O      0.333333333333     0.704800000000     0.285300000000     0          
O        O      0.382533333333     0.749700000000     0.289950000000     0          
O        O      0.388266666667     0.711750000000     0.250000000000     0          
O        O      0.333333333333     0.705500000000     0.034950000000     0          
O        O      0.333333333333     0.692350000000     0.375000000000     0          
O        O      0.379266666667     0.739750000000     0.375000000000     0          
O        O      0.333333333333     0.712850000000     0.125000000000     0          
O        O      0.333333333333     0.989450000000     0.093050000000     0          
O        O      0.333333333333     0.536750000000     0.125000000000     0          
O        O      0.333333333333     0.557950000000     0.375000000000     0          
O        O      0.564733333333     0.939950000000     0.349000000000     0          
O        O      0.629100000000     0.961550000000     0.329500000000     0          
O        O      0.572633333333     0.943750000000     0.297800000000     0          
O        O      0.612766666667     0.903550000000     0.325150000000     0          
O        O      0.570066666667     0.943500000000     0.048850000000     0          
O        O      0.564866666667     0.961000000000     0.098800000000     0          
O        O      0.629300000000     0.939600000000     0.079900000000     0          
O        O      0.571366666667     0.902750000000     0.087400000000     0          
O        O      0.616566666667     0.885250000000     0.375000000000     0          
O        O      0.333333333333     0.865600000000     0.340100000000     0          
O        O      0.333333333333     0.795200000000     0.035300000000     0          
O        O      0.617466666667     0.750300000000     0.039950000000     0          
O        O      0.611733333333     0.788250000000     0.000000000000     0          
O        O      0.333333333333     0.794500000000     0.284950000000     0          
O        O      0.333333333333     0.807650000000     0.125000000000     0          
O        O      0.620733333333     0.760250000000     0.125000000000     0          
O        O      0.333333333333     0.787150000000     0.375000000000     0          
O        O      0.333333333333     0.510550000000     0.343050000000     0          
O        O      0.333333333333     0.963250000000     0.375000000000     0          
O        O      0.333333333333     0.942050000000     0.125000000000     0          
O        O      0.435266666667     0.939950000000     0.401000000000     0          
O        O      0.370900000000     0.961550000000     0.420500000000     0          
O        O      0.427366666667     0.943750000000     0.452200000000     0          
O        O      0.387233333333     0.903550000000     0.424850000000     0          
O        O      0.429933333333     0.943500000000     0.201150000000     0          
O        O      0.435133333333     0.961000000000     0.151200000000     0          
O        O      0.370700000000     0.939600000000     0.170100000000     0          
O        O      0.428633333333     0.902750000000     0.162600000000     0          
O        O      0.383433333333     0.885250000000     0.375000000000     0          
O        O      0.333333333333     0.865600000000     0.409900000000     0          
O        O      0.333333333333     0.795200000000     0.214700000000     0          
O        O      0.382533333333     0.750300000000     0.210050000000     0          
O        O      0.388266666667     0.788250000000     0.250000000000     0          
O        O      0.333333333333     0.794500000000     0.465050000000     0          
O        O      0.379266666667     0.760250000000     0.125000000000     0          
O        O      0.333333333333     0.510550000000     0.406950000000     0          
O        O      0.564733333333     0.560050000000     0.151000000000     0          
O        O      0.629100000000     0.538450000000     0.170500000000     0          
O        O      0.572633333333     0.556250000000     0.202200000000     0          
O        O      0.612766666667     0.596450000000     0.174850000000     0          
O        O      0.570066666667     0.556500000000     0.451150000000     0          
O        O      0.564866666667     0.539000000000     0.401200000000     0          
O        O      0.629300000000     0.560400000000     0.420100000000     0          
O        O      0.571366666667     0.597250000000     0.412600000000     0          
O        O      0.616566666667     0.614750000000     0.125000000000     0          
O        O      0.333333333333     0.634400000000     0.159900000000     0          
O        O      0.333333333333     0.704800000000     0.464700000000     0          
O        O      0.617466666667     0.749700000000     0.460050000000     0          
O        O      0.611733333333     0.711750000000     0.000000000000     0          
O        O      0.333333333333     0.705500000000     0.215050000000     0          
O        O      0.620733333333     0.739750000000     0.375000000000     0          
O        O      0.333333333333     0.989450000000     0.156950000000     0          
O        O      0.564733333333     0.939950000000     0.401000000000     0          
O        O      0.629100000000     0.961550000000     0.420500000000     0          
O        O      0.572633333333     0.943750000000     0.452200000000     0          
O        O      0.612766666667     0.903550000000     0.424850000000     0          
O        O      0.570066666667     0.943500000000     0.201150000000     0          
O        O      0.564866666667     0.961000000000     0.151200000000     0          
O        O      0.629300000000     0.939600000000     0.170100000000     0          
O        O      0.571366666667     0.902750000000     0.162600000000     0          
O        O      0.617466666667     0.750300000000     0.210050000000     0          
O        O      0.611733333333     0.788250000000     0.250000000000     0          
O        O      0.435266666667     0.560050000000     0.151000000000     0          
O        O      0.370900000000     0.538450000000     0.170500000000     0          
O        O      0.427366666667     0.556250000000     0.202200000000     0          
O        O      0.387233333333     0.596450000000     0.174850000000     0          
O        O      0.429933333333     0.556500000000     0.451150000000     0          
O        O      0.435133333333     0.539000000000     0.401200000000     0          
O        O      0.370700000000     0.560400000000     0.420100000000     0          
O        O      0.428633333333     0.597250000000     0.412600000000     0          
O        O      0.382533333333     0.749700000000     0.460050000000     0          
O        O      0.388266666667     0.711750000000     0.000000000000     0          
O        O      0.564733333333     0.560050000000     0.099000000000     0          
O        O      0.629100000000     0.538450000000     0.079500000000     0          
O        O      0.572633333333     0.556250000000     0.047800000000     0          
O        O      0.612766666667     0.596450000000     0.075150000000     0          
O        O      0.570066666667     0.556500000000     0.298850000000     0          
O        O      0.564866666667     0.539000000000     0.348800000000     0          
O        O      0.629300000000     0.560400000000     0.329900000000     0          
O        O      0.571366666667     0.597250000000     0.337400000000     0          
O        O      0.617466666667     0.749700000000     0.289950000000     0          
O        O      0.611733333333     0.711750000000     0.250000000000     0          
O        O      0.435266666667     0.939950000000     0.349000000000     0          
O        O      0.370900000000     0.961550000000     0.329500000000     0          
O        O      0.427366666667     0.943750000000     0.297800000000     0          
O        O      0.387233333333     0.903550000000     0.325150000000     0          
O        O      0.429933333333     0.943500000000     0.048850000000     0          
O        O      0.435133333333     0.961000000000     0.098800000000     0          
O        O      0.370700000000     0.939600000000     0.079900000000     0          
O        O      0.428633333333     0.902750000000     0.087400000000     0          
O        O      0.382533333333     0.750300000000     0.039950000000     0          
O        O      0.388266666667     0.788250000000     0.000000000000     0          
O        O      0.601933333333     0.810050000000     0.099000000000     0          
O        O      0.537566666667     0.788450000000     0.079500000000     0          
O        O      0.594033333333     0.806250000000     0.047800000000     0          
O        O      0.553900000000     0.846450000000     0.075150000000     0          
O        O      0.596600000000     0.806500000000     0.298850000000     0          
O        O      0.601800000000     0.789000000000     0.348800000000     0          
O        O      0.537366666667     0.810400000000     0.329900000000     0          
O        O      0.595300000000     0.847250000000     0.337400000000     0          
O        O      0.550100000000     0.864750000000     0.125000000000     0          
O        O      0.500000000000     0.884400000000     0.090100000000     0          
O        O      0.500000000000     0.954800000000     0.285300000000     0          
O        O      0.549200000000     0.999700000000     0.289950000000     0          
O        O      0.554933333333     0.961750000000     0.250000000000     0          
O        O      0.500000000000     0.955500000000     0.034950000000     0          
O        O      0.500000000000     0.942350000000     0.375000000000     0          
O        O      0.545933333333     0.989750000000     0.375000000000     0          
O        O      0.500000000000     0.962850000000     0.125000000000     0          
O        O      0.500000000000     0.739450000000     0.093050000000     0          
O        O      0.500000000000     0.786750000000     0.125000000000     0          
O        O      0.500000000000     0.807950000000     0.375000000000     0          
O        O      0.398066666667     0.689950000000     0.349000000000     0          
O        O      0.462433333333     0.711550000000     0.329500000000     0          
O        O      0.405966666667     0.693750000000     0.297800000000     0          
O        O      0.446100000000     0.653550000000     0.325150000000     0          
O        O      0.403400000000     0.693500000000     0.048850000000     0          
O        O      0.398200000000     0.711000000000     0.098800000000     0          
O        O      0.462633333333     0.689600000000     0.079900000000     0          
O        O      0.404700000000     0.652750000000     0.087400000000     0          
O        O      0.449900000000     0.635250000000     0.375000000000     0          
O        O      0.500000000000     0.615600000000     0.340100000000     0          
O        O      0.500000000000     0.545200000000     0.035300000000     0          
O        O      0.450800000000     0.500300000000     0.039950000000     0          
O        O      0.445066666667     0.538250000000     0.000000000000     0          
O        O      0.500000000000     0.544500000000     0.284950000000     0          
O        O      0.500000000000     0.557650000000     0.125000000000     0          
O        O      0.454066666667     0.510250000000     0.125000000000     0          
O        O      0.500000000000     0.537150000000     0.375000000000     0          
O        O      0.500000000000     0.760550000000     0.343050000000     0          
O        O      0.500000000000     0.713250000000     0.375000000000     0          
O        O      0.500000000000     0.692050000000     0.125000000000     0          
O        O      0.601933333333     0.689950000000     0.401000000000     0          
O        O      0.537566666667     0.711550000000     0.420500000000     0          
O        O      0.594033333333     0.693750000000     0.452200000000     0          
O        O      0.553900000000     0.653550000000     0.424850000000     0          
O        O      0.596600000000     0.693500000000     0.201150000000     0          
O        O      0.601800000000     0.711000000000     0.151200000000     0          
O        O      0.537366666667     0.689600000000     0.170100000000     0          
O        O      0.595300000000     0.652750000000     0.162600000000     0          
O        O      0.550100000000     0.635250000000     0.375000000000     0          
O        O      0.500000000000     0.615600000000     0.409900000000     0          
O        O      0.500000000000     0.545200000000     0.214700000000     0          
O        O      0.549200000000     0.500300000000     0.210050000000     0          
O        O      0.554933333333     0.538250000000     0.250000000000     0          
O        O      0.500000000000     0.544500000000     0.465050000000     0          
O        O      0.545933333333     0.510250000000     0.125000000000     0          
O        O      0.500000000000     0.760550000000     0.406950000000     0          
O        O      0.398066666667     0.810050000000     0.151000000000     0          
O        O      0.462433333333     0.788450000000     0.170500000000     0          
O        O      0.405966666667     0.806250000000     0.202200000000     0          
O        O      0.446100000000     0.846450000000     0.174850000000     0          
O        O      0.403400000000     0.806500000000     0.451150000000     0          
O        O      0.398200000000     0.789000000000     0.401200000000     0          
O        O      0.462633333333     0.810400000000     0.420100000000     0          
O        O      0.404700000000     0.847250000000     0.412600000000     0          
O        O      0.449900000000     0.864750000000     0.125000000000     0          
O        O      0.500000000000     0.884400000000     0.159900000000     0          
O        O      0.500000000000     0.954800000000     0.464700000000     0          
O        O      0.450800000000     0.999700000000     0.460050000000     0          
O        O      0.445066666667     0.961750000000     0.000000000000     0          
O        O      0.500000000000     0.955500000000     0.215050000000     0          
O        O      0.454066666667     0.989750000000     0.375000000000     0          
O        O      0.500000000000     0.739450000000     0.156950000000     0          
O        O      0.398066666667     0.689950000000     0.401000000000     0          
O        O      0.462433333333     0.711550000000     0.420500000000     0          
O        O      0.405966666667     0.693750000000     0.452200000000     0          
O        O      0.446100000000     0.653550000000     0.424850000000     0          
O        O      0.403400000000     0.693500000000     0.201150000000     0          
O        O      0.398200000000     0.711000000000     0.151200000000     0          
O        O      0.462633333333     0.689600000000     0.170100000000     0          
O        O      0.404700000000     0.652750000000     0.162600000000     0          
O        O      0.450800000000     0.500300000000     0.210050000000     0          
O        O      0.445066666667     0.538250000000     0.250000000000     0          
O        O      0.601933333333     0.810050000000     0.151000000000     0          
O        O      0.537566666667     0.788450000000     0.170500000000     0          
O        O      0.594033333333     0.806250000000     0.202200000000     0          
O        O      0.553900000000     0.846450000000     0.174850000000     0          
O        O      0.596600000000     0.806500000000     0.451150000000     0          
O        O      0.601800000000     0.789000000000     0.401200000000     0          
O        O      0.537366666667     0.810400000000     0.420100000000     0          
O        O      0.595300000000     0.847250000000     0.412600000000     0          
O        O      0.549200000000     0.999700000000     0.460050000000     0          
O        O      0.554933333333     0.961750000000     0.000000000000     0          
O        O      0.398066666667     0.810050000000     0.099000000000     0          
O        O      0.462433333333     0.788450000000     0.079500000000     0          
O        O      0.405966666667     0.806250000000     0.047800000000     0          
O        O      0.446100000000     0.846450000000     0.075150000000     0          
O        O      0.403400000000     0.806500000000     0.298850000000     0          
O        O      0.398200000000     0.789000000000     0.348800000000     0          
O        O      0.462633333333     0.810400000000     0.329900000000     0          
O        O      0.404700000000     0.847250000000     0.337400000000     0          
O        O      0.450800000000     0.999700000000     0.289950000000     0          
O        O      0.445066666667     0.961750000000     0.250000000000     0          
O        O      0.601933333333     0.689950000000     0.349000000000     0          
O        O      0.537566666667     0.711550000000     0.329500000000     0          
O        O      0.594033333333     0.693750000000     0.297800000000     0          
O        O      0.553900000000     0.653550000000     0.325150000000     0          
O        O      0.596600000000     0.693500000000     0.048850000000     0          
O        O      0.601800000000     0.711000000000     0.098800000000     0          
O        O      0.537366666667     0.689600000000     0.079900000000     0          
O        O      0.595300000000     0.652750000000     0.087400000000     0          
O        O      0.549200000000     0.500300000000     0.039950000000     0          
O        O      0.554933333333     0.538250000000     0.000000000000     0          
O        O      0.435266666667     0.560050000000     0.599000000000     0          
O        O      0.370900000000     0.538450000000     0.579500000000     0          
O        O      0.427366666667     0.556250000000     0.547800000000     0          
O        O      0.387233333333     0.596450000000     0.575150000000     0          
O        O      0.429933333333     0.556500000000     0.798850000000     0          
O        O      0.435133333333     0.539000000000     0.848800000000     0          
O        O      0.370700000000     0.560400000000     0.829900000000     0          
O        O      0.428633333333     0.597250000000     0.837400000000     0          
O        O      0.383433333333     0.614750000000     0.625000000000     0          
O        O      0.333333333333     0.634400000000     0.590100000000     0          
O        O      0.333333333333     0.704800000000     0.785300000000     0          
O        O      0.382533333333     0.749700000000     0.789950000000     0          
O        O      0.388266666667     0.711750000000     0.750000000000     0          
O        O      0.333333333333     0.705500000000     0.534950000000     0          
O        O      0.333333333333     0.692350000000     0.875000000000     0          
O        O      0.379266666667     0.739750000000     0.875000000000     0          
O        O      0.333333333333     0.712850000000     0.625000000000     0          
O        O      0.333333333333     0.989450000000     0.593050000000     0          
O        O      0.333333333333     0.536750000000     0.625000000000     0          
O        O      0.333333333333     0.557950000000     0.875000000000     0          
O        O      0.564733333333     0.939950000000     0.849000000000     0          
O        O      0.629100000000     0.961550000000     0.829500000000     0          
O        O      0.572633333333     0.943750000000     0.797800000000     0          
O        O      0.612766666667     0.903550000000     0.825150000000     0          
O        O      0.570066666667     0.943500000000     0.548850000000     0          
O        O      0.564866666667     0.961000000000     0.598800000000     0          
O        O      0.629300000000     0.939600000000     0.579900000000     0          
O        O      0.571366666667     0.902750000000     0.587400000000     0          
O        O      0.616566666667     0.885250000000     0.875000000000     0          
O        O      0.333333333333     0.865600000000     0.840100000000     0          
O        O      0.333333333333     0.795200000000     0.535300000000     0          
O        O      0.617466666667     0.750300000000     0.539950000000     0          
O        O      0.611733333333     0.788250000000     0.500000000000     0          
O        O      0.333333333333     0.794500000000     0.784950000000     0          
O        O      0.333333333333     0.807650000000     0.625000000000     0          
O        O      0.620733333333     0.760250000000     0.625000000000     0          
O        O      0.333333333333     0.787150000000     0.875000000000     0          
O        O      0.333333333333     0.510550000000     0.843050000000     0          
O        O      0.333333333333     0.963250000000     0.875000000000     0          
O        O      0.333333333333     0.942050000000     0.625000000000     0          
O        O      0.435266666667     0.939950000000     0.901000000000     0          
O        O      0.370900000000     0.961550000000     0.920500000000     0          
O        O      0.427366666667     0.943750000000     0.952200000000     0          
O        O      0.387233333333     0.903550000000     0.924850000000     0          
O        O      0.429933333333     0.943500000000     0.701150000000     0          
O        O      0.435133333333     0.961000000000     0.651200000000     0          
O        O      0.370700000000     0.939600000000     0.670100000000     0          
O        O      0.428633333333     0.902750000000     0.662600000000     0          
O        O      0.383433333333     0.885250000000     0.875000000000     0          
O        O      0.333333333333     0.865600000000     0.909900000000     0          
O        O      0.333333333333     0.795200000000     0.714700000000     0          
O        O      0.382533333333     0.750300000000     0.710050000000     0          
O        O      0.388266666667     0.788250000000     0.750000000000     0          
O        O      0.333333333333     0.794500000000     0.965050000000     0          
O        O      0.379266666667     0.760250000000     0.625000000000     0          
O        O      0.333333333333     0.510550000000     0.906950000000     0          
O        O      0.564733333333     0.560050000000     0.651000000000     0          
O        O      0.629100000000     0.538450000000     0.670500000000     0          
O        O      0.572633333333     0.556250000000     0.702200000000     0          
O        O      0.612766666667     0.596450000000     0.674850000000     0          
O        O      0.570066666667     0.556500000000     0.951150000000     0          
O        O      0.564866666667     0.539000000000     0.901200000000     0          
O        O      0.629300000000     0.560400000000     0.920100000000     0          
O        O      0.571366666667     0.597250000000     0.912600000000     0          
O        O      0.616566666667     0.614750000000     0.625000000000     0          
O        O      0.333333333333     0.634400000000     0.659900000000     0          
O        O      0.333333333333     0.704800000000     0.964700000000     0          
O        O      0.617466666667     0.749700000000     0.960050000000     0          
O        O      0.611733333333     0.711750000000     0.500000000000     0          
O        O      0.333333333333     0.705500000000     0.715050000000     0          
O        O      0.620733333333     0.739750000000     0.875000000000     0          
O        O      0.333333333333     0.989450000000     0.656950000000     0          
O        O      0.564733333333     0.939950000000     0.901000000000     0          
O        O      0.629100000000     0.961550000000     0.920500000000     0          
O        O      0.572633333333     0.943750000000     0.952200000000     0          
O        O      0.612766666667     0.903550000000     0.924850000000     0          
O        O      0.570066666667     0.943500000000     0.701150000000     0          
O        O      0.564866666667     0.961000000000     0.651200000000     0          
O        O      0.629300000000     0.939600000000     0.670100000000     0          
O        O      0.571366666667     0.902750000000     0.662600000000     0          
O        O      0.617466666667     0.750300000000     0.710050000000     0          
O        O      0.611733333333     0.788250000000     0.750000000000     0          
O        O      0.435266666667     0.560050000000     0.651000000000     0          
O        O      0.370900000000     0.538450000000     0.670500000000     0          
O        O      0.427366666667     0.556250000000     0.702200000000     0          
O        O      0.387233333333     0.596450000000     0.674850000000     0          
O        O      0.429933333333     0.556500000000     0.951150000000     0          
O        O      0.435133333333     0.539000000000     0.901200000000     0          
O        O      0.370700000000     0.560400000000     0.920100000000     0          
O        O      0.428633333333     0.597250000000     0.912600000000     0          
O        O      0.382533333333     0.749700000000     0.960050000000     0          
O        O      0.388266666667     0.711750000000     0.500000000000     0          
O        O      0.564733333333     0.560050000000     0.599000000000     0          
O        O      0.629100000000     0.538450000000     0.579500000000     0          
O        O      0.572633333333     0.556250000000     0.547800000000     0          
O        O      0.612766666667     0.596450000000     0.575150000000     0          
O        O      0.570066666667     0.556500000000     0.798850000000     0          
O        O      0.564866666667     0.539000000000     0.848800000000     0          
O        O      0.629300000000     0.560400000000     0.829900000000     0          
O        O      0.571366666667     0.597250000000     0.837400000000     0          
O        O      0.617466666667     0.749700000000     0.789950000000     0          
O        O      0.611733333333     0.711750000000     0.750000000000     0          
O        O      0.435266666667     0.939950000000     0.849000000000     0          
O        O      0.370900000000     0.961550000000     0.829500000000     0          
O        O      0.427366666667     0.943750000000     0.797800000000     0          
O        O      0.387233333333     0.903550000000     0.825150000000     0          
O        O      0.429933333333     0.943500000000     0.548850000000     0          
O        O      0.435133333333     0.961000000000     0.598800000000     0          
O        O      0.370700000000     0.939600000000     0.579900000000     0          
O        O      0.428633333333     0.902750000000     0.587400000000     0          
O        O      0.382533333333     0.750300000000     0.539950000000     0          
O        O      0.388266666667     0.788250000000     0.500000000000     0          
O        O      0.601933333333     0.810050000000     0.599000000000     0          
O        O      0.537566666667     0.788450000000     0.579500000000     0          
O        O      0.594033333333     0.806250000000     0.547800000000     0          
O        O      0.553900000000     0.846450000000     0.575150000000     0          
O        O      0.596600000000     0.806500000000     0.798850000000     0          
O        O      0.601800000000     0.789000000000     0.848800000000     0          
O        O      0.537366666667     0.810400000000     0.829900000000     0          
O        O      0.595300000000     0.847250000000     0.837400000000     0          
O        O      0.550100000000     0.864750000000     0.625000000000     0          
O        O      0.500000000000     0.884400000000     0.590100000000     0          
O        O      0.500000000000     0.954800000000     0.785300000000     0          
O        O      0.549200000000     0.999700000000     0.789950000000     0          
O        O      0.554933333333     0.961750000000     0.750000000000     0          
O        O      0.500000000000     0.955500000000     0.534950000000     0          
O        O      0.500000000000     0.942350000000     0.875000000000     0          
O        O      0.545933333333     0.989750000000     0.875000000000     0          
O        O      0.500000000000     0.962850000000     0.625000000000     0          
O        O      0.500000000000     0.739450000000     0.593050000000     0          
O        O      0.500000000000     0.786750000000     0.625000000000     0          
O        O      0.500000000000     0.807950000000     0.875000000000     0          
O        O      0.398066666667     0.689950000000     0.849000000000     0          
O        O      0.462433333333     0.711550000000     0.829500000000     0          
O        O      0.405966666667     0.693750000000     0.797800000000     0          
O        O      0.446100000000     0.653550000000     0.825150000000     0          
O        O      0.403400000000     0.693500000000     0.548850000000     0          
O        O      0.398200000000     0.711000000000     0.598800000000     0          
O        O      0.462633333333     0.689600000000     0.579900000000     0          
O        O      0.404700000000     0.652750000000     0.587400000000     0          
O        O      0.449900000000     0.635250000000     0.875000000000     0          
O        O      0.500000000000     0.615600000000     0.840100000000     0          
O        O      0.500000000000     0.545200000000     0.535300000000     0          
O        O      0.450800000000     0.500300000000     0.539950000000     0          
O        O      0.445066666667     0.538250000000     0.500000000000     0          
O        O      0.500000000000     0.544500000000     0.784950000000     0          
O        O      0.500000000000     0.557650000000     0.625000000000     0          
O        O      0.454066666667     0.510250000000     0.625000000000     0          
O        O      0.500000000000     0.537150000000     0.875000000000     0          
O        O      0.500000000000     0.760550000000     0.843050000000     0          
O        O      0.500000000000     0.713250000000     0.875000000000     0          
O        O      0.500000000000     0.692050000000     0.625000000000     0          
O        O      0.601933333333     0.689950000000     0.901000000000     0          
O        O      0.537566666667     0.711550000000     0.920500000000     0          
O        O      0.594033333333     0.693750000000     0.952200000000     0          
O        O      0.553900000000     0.653550000000     0.924850000000     0          
O        O      0.596600000000     0.693500000000     0.701150000000     0          
O        O      0.601800000000     0.711000000000     0.651200000000     0          
O        O      0.537366666667     0.689600000000     0.670100000000     0          
O        O      0.595300000000     0.652750000000     0.662600000000     0          
O        O      0.550100000000     0.635250000000     0.875000000000     0          
O        O      0.500000000000     0.615600000000     0.909900000000     0          
O        O      0.500000000000     0.545200000000     0.714700000000     0          
O        O      0.549200000000     0.500300000000     0.710050000000     0          
O        O      0.554933333333     0.538250000000     0.750000000000     0          
O        O      0.500000000000     0.544500000000     0.965050000000     0          
O        O      0.545933333333     0.510250000000     0.625000000000     0          
O        O      0.500000000000     0.760550000000     0.906950000000     0          
O        O      0.398066666667     0.810050000000     0.651000000000     0          
O        O      0.462433333333     0.788450000000     0.670500000000     0          
O        O      0.405966666667     0.806250000000     0.702200000000     0          
O        O      0.446100000000     0.846450000000     0.674850000000     0          
O        O      0.403400000000     0.806500000000     0.951150000000     0          
O        O      0.398200000000     0.789000000000     0.901200000000     0          
O        O      0.462633333333     0.810400000000     0.920100000000     0          
O        O      0.404700000000     0.847250000000     0.912600000000     0          
O        O      0.449900000000     0.864750000000     0.625000000000     0          
O        O      0.500000000000     0.884400000000     0.659900000000     0          
O        O      0.500000000000     0.954800000000     0.964700000000     0          
O        O      0.450800000000     0.999700000000     0.960050000000     0          
O        O      0.445066666667     0.961750000000     0.500000000000     0          
O        O      0.500000000000     0.955500000000     0.715050000000     0          
O        O      0.454066666667     0.989750000000     0.875000000000     0          
O        O      0.500000000000     0.739450000000     0.656950000000     0          
O        O      0.398066666667     0.689950000000     0.901000000000     0          
O        O      0.462433333333     0.711550000000     0.920500000000     0          
O        O      0.405966666667     0.693750000000     0.952200000000     0          
O        O      0.446100000000     0.653550000000     0.924850000000     0          
O        O      0.403400000000     0.693500000000     0.701150000000     0          
O        O      0.398200000000     0.711000000000     0.651200000000     0          
O        O      0.462633333333     0.689600000000     0.670100000000     0          
O        O      0.404700000000     0.652750000000     0.662600000000     0          
O        O      0.450800000000     0.500300000000     0.710050000000     0          
O        O      0.445066666667     0.538250000000     0.750000000000     0          
O        O      0.601933333333     0.810050000000     0.651000000000     0          
O        O      0.537566666667     0.788450000000     0.670500000000     0          
O        O      0.594033333333     0.806250000000     0.702200000000     0          
O        O      0.553900000000     0.846450000000     0.674850000000     0          
O        O      0.596600000000     0.806500000000     0.951150000000     0          
O        O      0.601800000000     0.789000000000     0.901200000000     0          
O        O      0.537366666667     0.810400000000     0.920100000000     0          
O        O      0.595300000000     0.847250000000     0.912600000000     0          
O        O      0.549200000000     0.999700000000     0.960050000000     0          
O        O      0.554933333333     0.961750000000     0.500000000000     0          
O        O      0.398066666667     0.810050000000     0.599000000000     0          
O        O      0.462433333333     0.788450000000     0.579500000000     0          
O        O      0.405966666667     0.806250000000     0.547800000000     0          
O        O      0.446100000000     0.846450000000     0.575150000000     0          
O        O      0.403400000000     0.806500000000     0.798850000000     0          
O        O      0.398200000000     0.789000000000     0.848800000000     0          
O        O      0.462633333333     0.810400000000     0.829900000000     0          
O        O      0.404700000000     0.847250000000     0.837400000000     0          
O        O      0.450800000000     0.999700000000     0.789950000000     0          
O        O      0.445066666667     0.961750000000     0.750000000000     0          
O        O      0.601933333333     0.689950000000     0.849000000000     0          
O        O      0.537566666667     0.711550000000     0.829500000000     0          
O        O      0.594033333333     0.693750000000     0.797800000000     0          
O        O      0.553900000000     0.653550000000     0.825150000000     0          
O        O      0.596600000000     0.693500000000     0.548850000000     0          
O        O      0.601800000000     0.711000000000     0.598800000000     0          
O        O      0.537366666667     0.689600000000     0.579900000000     0          
O        O      0.595300000000     0.652750000000     0.587400000000     0          
O        O      0.549200000000     0.500300000000     0.539950000000     0          
O        O      0.554933333333     0.538250000000     0.500000000000     0          
O        O      0.768600000000     0.060050000000     0.099000000000     0          
O        O      0.704233333333     0.038450000000     0.079500000000     0          
O        O      0.760700000000     0.056250000000     0.047800000000     0          
O        O      0.720566666667     0.096450000000     0.075150000000     0          
O        O      0.763266666667     0.056500000000     0.298850000000     0          
O        O      0.768466666667     0.039000000000     0.348800000000     0          
O        O      0.704033333333     0.060400000000     0.329900000000     0          
O        O      0.761966666667     0.097250000000     0.337400000000     0          
O        O      0.716766666667     0.114750000000     0.125000000000     0          
O        O      0.666666666667     0.134400000000     0.090100000000     0          
O        O      0.666666666667     0.204800000000     0.285300000000     0          
O        O      0.715866666667     0.249700000000     0.289950000000     0          
O        O      0.721600000000     0.211750000000     0.250000000000     0          
O        O      0.666666666667     0.205500000000     0.034950000000     0          
O        O      0.666666666667     0.192350000000     0.375000000000     0          
O        O      0.712600000000     0.239750000000     0.375000000000     0          
O        O      0.666666666667     0.212850000000     0.125000000000     0          
O        O      0.666666666667     0.489450000000     0.093050000000     0          
O        O      0.666666666667     0.036750000000     0.125000000000     0          
O        O      0.666666666667     0.057950000000     0.375000000000     0          
O        O      0.898066666667     0.439950000000     0.349000000000     0          
O        O      0.962433333333     0.461550000000     0.329500000000     0          
O        O      0.905966666667     0.443750000000     0.297800000000     0          
O        O      0.946100000000     0.403550000000     0.325150000000     0          
O        O      0.903400000000     0.443500000000     0.048850000000     0          
O        O      0.898200000000     0.461000000000     0.098800000000     0          
O        O      0.962633333333     0.439600000000     0.079900000000     0          
O        O      0.904700000000     0.402750000000     0.087400000000     0          
O        O      0.949900000000     0.385250000000     0.375000000000     0          
O        O      0.666666666667     0.365600000000     0.340100000000     0          
O        O      0.666666666667     0.295200000000     0.035300000000     0          
O        O      0.950800000000     0.250300000000     0.039950000000     0          
O        O      0.945066666667     0.288250000000     0.000000000000     0          
O        O      0.666666666667     0.294500000000     0.284950000000     0          
O        O      0.666666666667     0.307650000000     0.125000000000     0          
O        O      0.954066666667     0.260250000000     0.125000000000     0          
O        O      0.666666666667     0.287150000000     0.375000000000     0          
O        O      0.666666666667     0.010550000000     0.343050000000     0          
O        O      0.666666666667     0.463250000000     0.375000000000     0          
O        O      0.666666666667     0.442050000000     0.125000000000     0          
O        O      0.768600000000     0.439950000000     0.401000000000     0          
O        O      0.704233333333     0.461550000000     0.420500000000     0          
O        O      0.760700000000     0.443750000000     0.452200000000     0          
O        O      0.720566666667     0.403550000000     0.424850000000     0          
O        O      0.763266666667     0.443500000000     0.201150000000     0          
O        O      0.768466666667     0.461000000000     0.151200000000     0          
O        O      0.704033333333     0.439600000000     0.170100000000     0          
O        O      0.761966666667     0.402750000000     0.162600000000     0          
O        O      0.716766666667     0.385250000000     0.375000000000     0          
O        O      0.666666666667     0.365600000000     0.409900000000     0          
O        O      0.666666666667     0.295200000000     0.214700000000     0          
O        O      0.715866666667     0.250300000000     0.210050000000     0          
O        O      0.721600000000     0.288250000000     0.250000000000     0          
O        O      0.666666666667     0.294500000000     0.465050000000     0          
O        O      0.712600000000     0.260250000000     0.125000000000     0          
O        O      0.666666666667     0.010550000000     0.406950000000     0          
O        O      0.898066666667     0.060050000000     0.151000000000     0          
O        O      0.962433333333     0.038450000000     0.170500000000     0          
O        O      0.905966666667     0.056250000000     0.202200000000     0          
O        O      0.946100000000     0.096450000000     0.174850000000     0          
O        O      0.903400000000     0.056500000000     0.451150000000     0          
O        O      0.898200000000     0.039000000000     0.401200000000     0          
O        O      0.962633333333     0.060400000000     0.420100000000     0          
O        O      0.904700000000     0.097250000000     0.412600000000     0          
O        O      0.949900000000     0.114750000000     0.125000000000     0          
O        O      0.666666666667     0.134400000000     0.159900000000     0          
O        O      0.666666666667     0.204800000000     0.464700000000     0          
O        O      0.950800000000     0.249700000000     0.460050000000     0          
O        O      0.945066666667     0.211750000000     0.000000000000     0          
O        O      0.666666666667     0.205500000000     0.215050000000     0          
O        O      0.954066666667     0.239750000000     0.375000000000     0          
O        O      0.666666666667     0.489450000000     0.156950000000     0          
O        O      0.898066666667     0.439950000000     0.401000000000     0          
O        O      0.962433333333     0.461550000000     0.420500000000     0          
O        O      0.905966666667     0.443750000000     0.452200000000     0          
O        O      0.946100000000     0.403550000000     0.424850000000     0          
O        O      0.903400000000     0.443500000000     0.201150000000     0          
O        O      0.898200000000     0.461000000000     0.151200000000     0          
O        O      0.962633333333     0.439600000000     0.170100000000     0          
O        O      0.904700000000     0.402750000000     0.162600000000     0          
O        O      0.950800000000     0.250300000000     0.210050000000     0          
O        O      0.945066666667     0.288250000000     0.250000000000     0          
O        O      0.768600000000     0.060050000000     0.151000000000     0          
O        O      0.704233333333     0.038450000000     0.170500000000     0          
O        O      0.760700000000     0.056250000000     0.202200000000     0          
O        O      0.720566666667     0.096450000000     0.174850000000     0          
O        O      0.763266666667     0.056500000000     0.451150000000     0          
O        O      0.768466666667     0.039000000000     0.401200000000     0          
O        O      0.704033333333     0.060400000000     0.420100000000     0          
O        O      0.761966666667     0.097250000000     0.412600000000     0          
O        O      0.715866666667     0.249700000000     0.460050000000     0          
O        O      0.721600000000     0.211750000000     0.000000000000     0          
O        O      0.898066666667     0.060050000000     0.099000000000     0          
O        O      0.962433333333     0.038450000000     0.079500000000     0          
O        O      0.905966666667     0.056250000000     0.047800000000     0          
O        O      0.946100000000     0.096450000000     0.075150000000     0          
O        O      0.903400000000     0.056500000000     0.298850000000     0          
O        O      0.898200000000     0.039000000000     0.348800000000     0          
O        O      0.962633333333     0.060400000000     0.329900000000     0          
O        O      0.904700000000     0.097250000000     0.337400000000     0          
O        O      0.950800000000     0.249700000000     0.289950000000     0          
O        O      0.945066666667     0.211750000000     0.250000000000     0          
O        O      0.768600000000     0.439950000000     0.349000000000     0          
O        O      0.704233333333     0.461550000000     0.329500000000     0          
O        O      0.760700000000     0.443750000000     0.297800000000     0          
O        O      0.720566666667     0.403550000000     0.325150000000     0          
O        O      0.763266666667     0.443500000000     0.048850000000     0          
O        O      0.768466666667     0.461000000000     0.098800000000     0          
O        O      0.704033333333     0.439600000000     0.079900000000     0          
O        O      0.761966666667     0.402750000000     0.087400000000     0          
O        O      0.715866666667     0.250300000000     0.039950000000     0          
O        O      0.721600000000     0.288250000000     0.000000000000     0          
O        O      0.935266666667     0.310050000000     0.099000000000     0          
O        O      0.870900000000     0.288450000000     0.079500000000     0          
O        O      0.927366666667     0.306250000000     0.047800000000     0          
O        O      0.887233333333     0.346450000000     0.075150000000     0          
O        O      0.929933333333     0.306500000000     0.298850000000     0          
O        O      0.935133333333     0.289000000000     0.348800000000     0          
O        O      0.870700000000     0.310400000000     0.329900000000     0          
O        O      0.928633333333     0.347250000000     0.337400000000     0          
O        O      0.883433333333     0.364750000000     0.125000000000     0          
O        O      0.833333333333     0.384400000000     0.090100000000     0          
O        O      0.833333333333     0.454800000000     0.285300000000     0          
O        O      0.882533333333     0.499700000000     0.289950000000     0          
O        O      0.888266666667     0.461750000000     0.250000000000     0          
O        O      0.833333333333     0.455500000000     0.034950000000     0          
O        O      0.833333333333     0.442350000000     0.375000000000     0          
O        O      0.879266666667     0.489750000000     0.375000000000     0          
O        O      0.833333333333     0.462850000000     0.125000000000     0          
O        O      0.833333333333     0.239450000000     0.093050000000     0          
O        O      0.833333333333     0.286750000000     0.125000000000     0          
O        O      0.833333333333     0.307950000000     0.375000000000     0          
O        O      0.731400000000     0.189950000000     0.349000000000     0          
O        O      0.795766666667     0.211550000000     0.329500000000     0          
O        O      0.739300000000     0.193750000000     0.297800000000     0          
O        O      0.779433333333     0.153550000000     0.325150000000     0          
O        O      0.736733333333     0.193500000000     0.048850000000     0          
O        O      0.731533333333     0.211000000000     0.098800000000     0          
O        O      0.795966666667     0.189600000000     0.079900000000     0          
O        O      0.738033333333     0.152750000000     0.087400000000     0          
O        O      0.783233333333     0.135250000000     0.375000000000     0          
O        O      0.833333333333     0.115600000000     0.340100000000     0          
O        O      0.833333333333     0.045200000000     0.035300000000     0          
O        O      0.784133333333     0.000300000000     0.039950000000     0          
O        O      0.778400000000     0.038250000000     0.000000000000     0          
O        O      0.833333333333     0.044500000000     0.284950000000     0          
O        O      0.833333333333     0.057650000000     0.125000000000     0          
O        O      0.787400000000     0.010250000000     0.125000000000     0          
O        O      0.833333333333     0.037150000000     0.375000000000     0          
O        O      0.833333333333     0.260550000000     0.343050000000     0          
O        O      0.833333333333     0.213250000000     0.375000000000     0          
O        O      0.833333333333     0.192050000000     0.125000000000     0          
O        O      0.935266666667     0.189950000000     0.401000000000     0          
O        O      0.870900000000     0.211550000000     0.420500000000     0          
O        O      0.927366666667     0.193750000000     0.452200000000     0          
O        O      0.887233333333     0.153550000000     0.424850000000     0          
O        O      0.929933333333     0.193500000000     0.201150000000     0          
O        O      0.935133333333     0.211000000000     0.151200000000     0          
O        O      0.870700000000     0.189600000000     0.170100000000     0          
O        O      0.928633333333     0.152750000000     0.162600000000     0          
O        O      0.883433333333     0.135250000000     0.375000000000     0          
O        O      0.833333333333     0.115600000000     0.409900000000     0          
O        O      0.833333333333     0.045200000000     0.214700000000     0          
O        O      0.882533333333     0.000300000000     0.210050000000     0          
O        O      0.888266666667     0.038250000000     0.250000000000     0          
O        O      0.833333333333     0.044500000000     0.465050000000     0          
O        O      0.879266666667     0.010250000000     0.125000000000     0          
O        O      0.833333333333     0.260550000000     0.406950000000     0          
O        O      0.731400000000     0.310050000000     0.151000000000     0          
O        O      0.795766666667     0.288450000000     0.170500000000     0          
O        O      0.739300000000     0.306250000000     0.202200000000     0          
O        O      0.779433333333     0.346450000000     0.174850000000     0          
O        O      0.736733333333     0.306500000000     0.451150000000     0          
O        O      0.731533333333     0.289000000000     0.401200000000     0          
O        O      0.795966666667     0.310400000000     0.420100000000     0          
O        O      0.738033333333     0.347250000000     0.412600000000     0          
O        O      0.783233333333     0.364750000000     0.125000000000     0          
O        O      0.833333333333     0.384400000000     0.159900000000     0          
O        O      0.833333333333     0.454800000000     0.464700000000     0          
O        O      0.784133333333     0.499700000000     0.460050000000     0          
O        O      0.778400000000     0.461750000000     0.000000000000     0          
O        O      0.833333333333     0.455500000000     0.215050000000     0          
O        O      0.787400000000     0.489750000000     0.375000000000     0          
O        O      0.833333333333     0.239450000000     0.156950000000     0          
O        O      0.731400000000     0.189950000000     0.401000000000     0          
O        O      0.795766666667     0.211550000000     0.420500000000     0          
O        O      0.739300000000     0.193750000000     0.452200000000     0          
O        O      0.779433333333     0.153550000000     0.424850000000     0          
O        O      0.736733333333     0.193500000000     0.201150000000     0          
O        O      0.731533333333     0.211000000000     0.151200000000     0          
O        O      0.795966666667     0.189600000000     0.170100000000     0          
O        O      0.738033333333     0.152750000000     0.162600000000     0          
O        O      0.784133333333     0.000300000000     0.210050000000     0          
O        O      0.778400000000     0.038250000000     0.250000000000     0          
O        O      0.935266666667     0.310050000000     0.151000000000     0          
O        O      0.870900000000     0.288450000000     0.170500000000     0          
O        O      0.927366666667     0.306250000000     0.202200000000     0          
O        O      0.887233333333     0.346450000000     0.174850000000     0          
O        O      0.929933333333     0.306500000000     0.451150000000     0          
O        O      0.935133333333     0.289000000000     0.401200000000     0          
O        O      0.870700000000     0.310400000000     0.420100000000     0          
O        O      0.928633333333     0.347250000000     0.412600000000     0          
O        O      0.882533333333     0.499700000000     0.460050000000     0          
O        O      0.888266666667     0.461750000000     0.000000000000     0          
O        O      0.731400000000     0.310050000000     0.099000000000     0          
O        O      0.795766666667     0.288450000000     0.079500000000     0          
O        O      0.739300000000     0.306250000000     0.047800000000     0          
O        O      0.779433333333     0.346450000000     0.075150000000     0          
O        O      0.736733333333     0.306500000000     0.298850000000     0          
O        O      0.731533333333     0.289000000000     0.348800000000     0          
O        O      0.795966666667     0.310400000000     0.329900000000     0          
O        O      0.738033333333     0.347250000000     0.337400000000     0          
O        O      0.784133333333     0.499700000000     0.289950000000     0          
O        O      0.778400000000     0.461750000000     0.250000000000     0          
O        O      0.935266666667     0.189950000000     0.349000000000     0          
O        O      0.870900000000     0.211550000000     0.329500000000     0          
O        O      0.927366666667     0.193750000000     0.297800000000     0          
O        O      0.887233333333     0.153550000000     0.325150000000     0          
O        O      0.929933333333     0.193500000000     0.048850000000     0          
O        O      0.935133333333     0.211000000000     0.098800000000     0          
O        O      0.870700000000     0.189600000000     0.079900000000     0          
O        O      0.928633333333     0.152750000000     0.087400000000     0          
O        O      0.882533333333     0.000300000000     0.039950000000     0          
O        O      0.888266666667     0.038250000000     0.000000000000     0          
O        O      0.768600000000     0.060050000000     0.599000000000     0          
O        O      0.704233333333     0.038450000000     0.579500000000     0          
O        O      0.760700000000     0.056250000000     0.547800000000     0          
O        O      0.720566666667     0.096450000000     0.575150000000     0          
O        O      0.763266666667     0.056500000000     0.798850000000     0          
O        O      0.768466666667     0.039000000000     0.848800000000     0          
O        O      0.704033333333     0.060400000000     0.829900000000     0          
O        O      0.761966666667     0.097250000000     0.837400000000     0          
O        O      0.716766666667     0.114750000000     0.625000000000     0          
O        O      0.666666666667     0.134400000000     0.590100000000     0          
O        O      0.666666666667     0.204800000000     0.785300000000     0          
O        O      0.715866666667     0.249700000000     0.789950000000     0          
O        O      0.721600000000     0.211750000000     0.750000000000     0          
O        O      0.666666666667     0.205500000000     0.534950000000     0          
O        O      0.666666666667     0.192350000000     0.875000000000     0          
O        O      0.712600000000     0.239750000000     0.875000000000     0          
O        O      0.666666666667     0.212850000000     0.625000000000     0          
O        O      0.666666666667     0.489450000000     0.593050000000     0          
O        O      0.666666666667     0.036750000000     0.625000000000     0          
O        O      0.666666666667     0.057950000000     0.875000000000     0          
O        O      0.898066666667     0.439950000000     0.849000000000     0          
O        O      0.962433333333     0.461550000000     0.829500000000     0          
O        O      0.905966666667     0.443750000000     0.797800000000     0          
O        O      0.946100000000     0.403550000000     0.825150000000     0          
O        O      0.903400000000     0.443500000000     0.548850000000     0          
O        O      0.898200000000     0.461000000000     0.598800000000     0          
O        O      0.962633333333     0.439600000000     0.579900000000     0          
O        O      0.904700000000     0.402750000000     0.587400000000     0          
O        O      0.949900000000     0.385250000000     0.875000000000     0          
O        O      0.666666666667     0.365600000000     0.840100000000     0          
O        O      0.666666666667     0.295200000000     0.535300000000     0          
O        O      0.950800000000     0.250300000000     0.539950000000     0          
O        O      0.945066666667     0.288250000000     0.500000000000     0          
O        O      0.666666666667     0.294500000000     0.784950000000     0          
O        O      0.666666666667     0.307650000000     0.625000000000     0          
O        O      0.954066666667     0.260250000000     0.625000000000     0          
O        O      0.666666666667     0.287150000000     0.875000000000     0          
O        O      0.666666666667     0.010550000000     0.843050000000     0          
O        O      0.666666666667     0.463250000000     0.875000000000     0          
O        O      0.666666666667     0.442050000000     0.625000000000     0          
O        O      0.768600000000     0.439950000000     0.901000000000     0          
O        O      0.704233333333     0.461550000000     0.920500000000     0          
O        O      0.760700000000     0.443750000000     0.952200000000     0          
O        O      0.720566666667     0.403550000000     0.924850000000     0          
O        O      0.763266666667     0.443500000000     0.701150000000     0          
O        O      0.768466666667     0.461000000000     0.651200000000     0          
O        O      0.704033333333     0.439600000000     0.670100000000     0          
O        O      0.761966666667     0.402750000000     0.662600000000     0          
O        O      0.716766666667     0.385250000000     0.875000000000     0          
O        O      0.666666666667     0.365600000000     0.909900000000     0          
O        O      0.666666666667     0.295200000000     0.714700000000     0          
O        O      0.715866666667     0.250300000000     0.710050000000     0          
O        O      0.721600000000     0.288250000000     0.750000000000     0          
O        O      0.666666666667     0.294500000000     0.965050000000     0          
O        O      0.712600000000     0.260250000000     0.625000000000     0          
O        O      0.666666666667     0.010550000000     0.906950000000     0          
O        O      0.898066666667     0.060050000000     0.651000000000     0          
O        O      0.962433333333     0.038450000000     0.670500000000     0          
O        O      0.905966666667     0.056250000000     0.702200000000     0          
O        O      0.946100000000     0.096450000000     0.674850000000     0          
O        O      0.903400000000     0.056500000000     0.951150000000     0          
O        O      0.898200000000     0.039000000000     0.901200000000     0          
O        O      0.962633333333     0.060400000000     0.920100000000     0          
O        O      0.904700000000     0.097250000000     0.912600000000     0          
O        O      0.949900000000     0.114750000000     0.625000000000     0          
O        O      0.666666666667     0.134400000000     0.659900000000     0          
O        O      0.666666666667     0.204800000000     0.964700000000     0          
O        O      0.950800000000     0.249700000000     0.960050000000     0          
O        O      0.945066666667     0.211750000000     0.500000000000     0          
O        O      0.666666666667     0.205500000000     0.715050000000     0          
O        O      0.954066666667     0.239750000000     0.875000000000     0          
O        O      0.666666666667     0.489450000000     0.656950000000     0          
O        O      0.898066666667     0.439950000000     0.901000000000     0          
O        O      0.962433333333     0.461550000000     0.920500000000     0          
O        O      0.905966666667     0.443750000000     0.952200000000     0          
O        O      0.946100000000     0.403550000000     0.924850000000     0          
O        O      0.903400000000     0.443500000000     0.701150000000     0          
O        O      0.898200000000     0.461000000000     0.651200000000     0          
O        O      0.962633333333     0.439600000000     0.670100000000     0          
O        O      0.904700000000     0.402750000000     0.662600000000     0          
O        O      0.950800000000     0.250300000000     0.710050000000     0          
O        O      0.945066666667     0.288250000000     0.750000000000     0          
O        O      0.768600000000     0.060050000000     0.651000000000     0          
O        O      0.704233333333     0.038450000000     0.670500000000     0          
O        O      0.760700000000     0.056250000000     0.702200000000     0          
O        O      0.720566666667     0.096450000000     0.674850000000     0          
O        O      0.763266666667     0.056500000000     0.951150000000     0          
O        O      0.768466666667     0.039000000000     0.901200000000     0          
O        O      0.704033333333     0.060400000000     0.920100000000     0          
O        O      0.761966666667     0.097250000000     0.912600000000     0          
O        O      0.715866666667     0.249700000000     0.960050000000     0          
O        O      0.721600000000     0.211750000000     0.500000000000     0          
O        O      0.898066666667     0.060050000000     0.599000000000     0          
O        O      0.962433333333     0.038450000000     0.579500000000     0          
O        O      0.905966666667     0.056250000000     0.547800000000     0          
O        O      0.946100000000     0.096450000000     0.575150000000     0          
O        O      0.903400000000     0.056500000000     0.798850000000     0          
O        O      0.898200000000     0.039000000000     0.848800000000     0          
O        O      0.962633333333     0.060400000000     0.829900000000     0          
O        O      0.904700000000     0.097250000000     0.837400000000     0          
O        O      0.950800000000     0.249700000000     0.789950000000     0          
O        O      0.945066666667     0.211750000000     0.750000000000     0          
O        O      0.768600000000     0.439950000000     0.849000000000     0          
O        O      0.704233333333     0.461550000000     0.829500000000     0          
O        O      0.760700000000     0.443750000000     0.797800000000     0          
O        O      0.720566666667     0.403550000000     0.825150000000     0          
O        O      0.763266666667     0.443500000000     0.548850000000     0          
O        O      0.768466666667     0.461000000000     0.598800000000     0          
O        O      0.704033333333     0.439600000000     0.579900000000     0          
O        O      0.761966666667     0.402750000000     0.587400000000     0          
O        O      0.715866666667     0.250300000000     0.539950000000     0          
O        O      0.721600000000     0.288250000000     0.500000000000     0          
O        O      0.935266666667     0.310050000000     0.599000000000     0          
O        O      0.870900000000     0.288450000000     0.579500000000     0          
O        O      0.927366666667     0.306250000000     0.547800000000     0          
O        O      0.887233333333     0.346450000000     0.575150000000     0          
O        O      0.929933333333     0.306500000000     0.798850000000     0          
O        O      0.935133333333     0.289000000000     0.848800000000     0          
O        O      0.870700000000     0.310400000000     0.829900000000     0          
O        O      0.928633333333     0.347250000000     0.837400000000     0          
O        O      0.883433333333     0.364750000000     0.625000000000     0          
O        O      0.833333333333     0.384400000000     0.590100000000     0          
O        O      0.833333333333     0.454800000000     0.785300000000     0          
O        O      0.882533333333     0.499700000000     0.789950000000     0          
O        O      0.888266666667     0.461750000000     0.750000000000     0          
O        O      0.833333333333     0.455500000000     0.534950000000     0          
O        O      0.833333333333     0.442350000000     0.875000000000     0          
O        O      0.879266666667     0.489750000000     0.875000000000     0          
O        O      0.833333333333     0.462850000000     0.625000000000     0          
O        O      0.833333333333     0.239450000000     0.593050000000     0          
O        O      0.833333333333     0.286750000000     0.625000000000     0          
O        O      0.833333333333     0.307950000000     0.875000000000     0          
O        O      0.731400000000     0.189950000000     0.849000000000     0          
O        O      0.795766666667     0.211550000000     0.829500000000     0          
O        O      0.739300000000     0.193750000000     0.797800000000     0          
O        O      0.779433333333     0.153550000000     0.825150000000     0          
O        O      0.736733333333     0.193500000000     0.548850000000     0          
O        O      0.731533333333     0.211000000000     0.598800000000     0          
O        O      0.795966666667     0.189600000000     0.579900000000     0          
O        O      0.738033333333     0.152750000000     0.587400000000     0          
O        O      0.783233333333     0.135250000000     0.875000000000     0          
O        O      0.833333333333     0.115600000000     0.840100000000     0          
O        O      0.833333333333     0.045200000000     0.535300000000     0          
O        O      0.784133333333     0.000300000000     0.539950000000     0          
O        O      0.778400000000     0.038250000000     0.500000000000     0          
O        O      0.833333333333     0.044500000000     0.784950000000     0          
O        O      0.833333333333     0.057650000000     0.625000000000     0          
O        O      0.787400000000     0.010250000000     0.625000000000     0          
O        O      0.833333333333     0.037150000000     0.875000000000     0          
O        O      0.833333333333     0.260550000000     0.843050000000     0          
O        O      0.833333333333     0.213250000000     0.875000000000     0          
O        O      0.833333333333     0.192050000000     0.625000000000     0          
O        O      0.935266666667     0.189950000000     0.901000000000     0          
O        O      0.870900000000     0.211550000000     0.920500000000     0          
O        O      0.927366666667     0.193750000000     0.952200000000     0          
O        O      0.887233333333     0.153550000000     0.924850000000     0          
O        O      0.929933333333     0.193500000000     0.701150000000     0          
O        O      0.935133333333     0.211000000000     0.651200000000     0          
O        O      0.870700000000     0.189600000000     0.670100000000     0          
O        O      0.928633333333     0.152750000000     0.662600000000     0          
O        O      0.883433333333     0.135250000000     0.875000000000     0          
O        O      0.833333333333     0.115600000000     0.909900000000     0          
O        O      0.833333333333     0.045200000000     0.714700000000     0          
O        O      0.882533333333     0.000300000000     0.710050000000     0          
O        O      0.888266666667     0.038250000000     0.750000000000     0          
O        O      0.833333333333     0.044500000000     0.965050000000     0          
O        O      0.879266666667     0.010250000000     0.625000000000     0          
O        O      0.833333333333     0.260550000000     0.906950000000     0          
O        O      0.731400000000     0.310050000000     0.651000000000     0          
O        O      0.795766666667     0.288450000000     0.670500000000     0          
O        O      0.739300000000     0.306250000000     0.702200000000     0          
O        O      0.779433333333     0.346450000000     0.674850000000     0          
O        O      0.736733333333     0.306500000000     0.951150000000     0          
O        O      0.731533333333     0.289000000000     0.901200000000     0          
O        O      0.795966666667     0.310400000000     0.920100000000     0          
O        O      0.738033333333     0.347250000000     0.912600000000     0          
O        O      0.783233333333     0.364750000000     0.625000000000     0          
O        O      0.833333333333     0.384400000000     0.659900000000     0          
O        O      0.833333333333     0.454800000000     0.964700000000     0          
O        O      0.784133333333     0.499700000000     0.960050000000     0          
O        O      0.778400000000     0.461750000000     0.500000000000     0          
O        O      0.833333333333     0.455500000000     0.715050000000     0          
O        O      0.787400000000     0.489750000000     0.875000000000     0          
O        O      0.833333333333     0.239450000000     0.656950000000     0          
O        O      0.731400000000     0.189950000000     0.901000000000     0          
O        O      0.795766666667     0.211550000000     0.920500000000     0          
O        O      0.739300000000     0.193750000000     0.952200000000     0          
O        O      0.779433333333     0.153550000000     0.924850000000     0          
O        O      0.736733333333     0.193500000000     0.701150000000     0          
O        O      0.731533333333     0.211000000000     0.651200000000     0          
O        O      0.795966666667     0.189600000000     0.670100000000     0          
O        O      0.738033333333     0.152750000000     0.662600000000     0          
O        O      0.784133333333     0.000300000000     0.710050000000     0          
O        O      0.778400000000     0.038250000000     0.750000000000     0          
O        O      0.935266666667     0.310050000000     0.651000000000     0          
O        O      0.870900000000     0.288450000000     0.670500000000     0          
O        O      0.927366666667     0.306250000000     0.702200000000     0          
O        O      0.887233333333     0.346450000000     0.674850000000     0          
O        O      0.929933333333     0.306500000000     0.951150000000     0          
O        O      0.935133333333     0.289000000000     0.901200000000     0          
O        O      0.870700000000     0.310400000000     0.920100000000     0          
O        O      0.928633333333     0.347250000000     0.912600000000     0          
O        O      0.882533333333     0.499700000000     0.960050000000     0          
O        O      0.888266666667     0.461750000000     0.500000000000     0          
O        O      0.731400000000     0.310050000000     0.599000000000     0          
O        O      0.795766666667     0.288450000000     0.579500000000     0          
O        O      0.739300000000     0.306250000000     0.547800000000     0          
O        O      0.779433333333     0.346450000000     0.575150000000     0          
O        O      0.736733333333     0.306500000000     0.798850000000     0          
O        O      0.731533333333     0.289000000000     0.848800000000     0          
O        O      0.795966666667     0.310400000000     0.829900000000     0          
O        O      0.738033333333     0.347250000000     0.837400000000     0          
O        O      0.784133333333     0.499700000000     0.789950000000     0          
O        O      0.778400000000     0.461750000000     0.750000000000     0          
O        O      0.935266666667     0.189950000000     0.849000000000     0          
O        O      0.870900000000     0.211550000000     0.829500000000     0          
O        O      0.927366666667     0.193750000000     0.797800000000     0          
O        O      0.887233333333     0.153550000000     0.825150000000     0          
O        O      0.929933333333     0.193500000000     0.548850000000     0          
O        O      0.935133333333     0.211000000000     0.598800000000     0          
O        O      0.870700000000     0.189600000000     0.579900000000     0          
O        O      0.928633333333     0.152750000000     0.587400000000     0          
O        O      0.882533333333     0.000300000000     0.539950000000     0          
O        O      0.888266666667     0.038250000000     0.500000000000     0          
O        O      0.768600000000     0.560050000000     0.099000000000     0          
O        O      0.704233333333     0.538450000000     0.079500000000     0          
O        O      0.760700000000     0.556250000000     0.047800000000     0          
O        O      0.720566666667     0.596450000000     0.075150000000     0          
O        O      0.763266666667     0.556500000000     0.298850000000     0          
O        O      0.768466666667     0.539000000000     0.348800000000     0          
O        O      0.704033333333     0.560400000000     0.329900000000     0          
O        O      0.761966666667     0.597250000000     0.337400000000     0          
O        O      0.716766666667     0.614750000000     0.125000000000     0          
O        O      0.666666666667     0.634400000000     0.090100000000     0          
O        O      0.666666666667     0.704800000000     0.285300000000     0          
O        O      0.715866666667     0.749700000000     0.289950000000     0          
O        O      0.721600000000     0.711750000000     0.250000000000     0          
O        O      0.666666666667     0.705500000000     0.034950000000     0          
O        O      0.666666666667     0.692350000000     0.375000000000     0          
O        O      0.712600000000     0.739750000000     0.375000000000     0          
O        O      0.666666666667     0.712850000000     0.125000000000     0          
O        O      0.666666666667     0.989450000000     0.093050000000     0          
O        O      0.666666666667     0.536750000000     0.125000000000     0          
O        O      0.666666666667     0.557950000000     0.375000000000     0          
O        O      0.898066666667     0.939950000000     0.349000000000     0          
O        O      0.962433333333     0.961550000000     0.329500000000     0          
O        O      0.905966666667     0.943750000000     0.297800000000     0          
O        O      0.946100000000     0.903550000000     0.325150000000     0          
O        O      0.903400000000     0.943500000000     0.048850000000     0          
O        O      0.898200000000     0.961000000000     0.098800000000     0          
O        O      0.962633333333     0.939600000000     0.079900000000     0          
O        O      0.904700000000     0.902750000000     0.087400000000     0          
O        O      0.949900000000     0.885250000000     0.375000000000     0          
O        O      0.666666666667     0.865600000000     0.340100000000     0          
O        O      0.666666666667     0.795200000000     0.035300000000     0          
O        O      0.950800000000     0.750300000000     0.039950000000     0          
O        O      0.945066666667     0.788250000000     0.000000000000     0          
O        O      0.666666666667     0.794500000000     0.284950000000     0          
O        O      0.666666666667     0.807650000000     0.125000000000     0          
O        O      0.954066666667     0.760250000000     0.125000000000     0          
O        O      0.666666666667     0.787150000000     0.375000000000     0          
O        O      0.666666666667     0.510550000000     0.343050000000     0          
O        O      0.666666666667     0.963250000000     0.375000000000     0          
O        O      0.666666666667     0.942050000000     0.125000000000     0          
O        O      0.768600000000     0.939950000000     0.401000000000     0          
O        O      0.704233333333     0.961550000000     0.420500000000     0          
O        O      0.760700000000     0.943750000000     0.452200000000     0          
O        O      0.720566666667     0.903550000000     0.424850000000     0          
O        O      0.763266666667     0.943500000000     0.201150000000     0          
O        O      0.768466666667     0.961000000000     0.151200000000     0          
O        O      0.704033333333     0.939600000000     0.170100000000     0          
O        O      0.761966666667     0.902750000000     0.162600000000     0          
O        O      0.716766666667     0.885250000000     0.375000000000     0          
O        O      0.666666666667     0.865600000000     0.409900000000     0          
O        O      0.666666666667     0.795200000000     0.214700000000     0          
O        O      0.715866666667     0.750300000000     0.210050000000     0          
O        O      0.721600000000     0.788250000000     0.250000000000     0          
O        O      0.666666666667     0.794500000000     0.465050000000     0          
O        O      0.712600000000     0.760250000000     0.125000000000     0          
O        O      0.666666666667     0.510550000000     0.406950000000     0          
O        O      0.898066666667     0.560050000000     0.151000000000     0          
O        O      0.962433333333     0.538450000000     0.170500000000     0          
O        O      0.905966666667     0.556250000000     0.202200000000     0          
O        O      0.946100000000     0.596450000000     0.174850000000     0          
O        O      0.903400000000     0.556500000000     0.451150000000     0          
O        O      0.898200000000     0.539000000000     0.401200000000     0          
O        O      0.962633333333     0.560400000000     0.420100000000     0          
O        O      0.904700000000     0.597250000000     0.412600000000     0          
O        O      0.949900000000     0.614750000000     0.125000000000     0          
O        O      0.666666666667     0.634400000000     0.159900000000     0          
O        O      0.666666666667     0.704800000000     0.464700000000     0          
O        O      0.950800000000     0.749700000000     0.460050000000     0          
O        O      0.945066666667     0.711750000000     0.000000000000     0          
O        O      0.666666666667     0.705500000000     0.215050000000     0          
O        O      0.954066666667     0.739750000000     0.375000000000     0          
O        O      0.666666666667     0.989450000000     0.156950000000     0          
O        O      0.898066666667     0.939950000000     0.401000000000     0          
O        O      0.962433333333     0.961550000000     0.420500000000     0          
O        O      0.905966666667     0.943750000000     0.452200000000     0          
O        O      0.946100000000     0.903550000000     0.424850000000     0          
O        O      0.903400000000     0.943500000000     0.201150000000     0          
O        O      0.898200000000     0.961000000000     0.151200000000     0          
O        O      0.962633333333     0.939600000000     0.170100000000     0          
O        O      0.904700000000     0.902750000000     0.162600000000     0          
O        O      0.950800000000     0.750300000000     0.210050000000     0          
O        O      0.945066666667     0.788250000000     0.250000000000     0          
O        O      0.768600000000     0.560050000000     0.151000000000     0          
O        O      0.704233333333     0.538450000000     0.170500000000     0          
O        O      0.760700000000     0.556250000000     0.202200000000     0          
O        O      0.720566666667     0.596450000000     0.174850000000     0          
O        O      0.763266666667     0.556500000000     0.451150000000     0          
O        O      0.768466666667     0.539000000000     0.401200000000     0          
O        O      0.704033333333     0.560400000000     0.420100000000     0          
O        O      0.761966666667     0.597250000000     0.412600000000     0          
O        O      0.715866666667     0.749700000000     0.460050000000     0          
O        O      0.721600000000     0.711750000000     0.000000000000     0          
O        O      0.898066666667     0.560050000000     0.099000000000     0          
O        O      0.962433333333     0.538450000000     0.079500000000     0          
O        O      0.905966666667     0.556250000000     0.047800000000     0          
O        O      0.946100000000     0.596450000000     0.075150000000     0          
O        O      0.903400000000     0.556500000000     0.298850000000     0          
O        O      0.898200000000     0.539000000000     0.348800000000     0          
O        O      0.962633333333     0.560400000000     0.329900000000     0          
O        O      0.904700000000     0.597250000000     0.337400000000     0          
O        O      0.950800000000     0.749700000000     0.289950000000     0          
O        O      0.945066666667     0.711750000000     0.250000000000     0          
O        O      0.768600000000     0.939950000000     0.349000000000     0          
O        O      0.704233333333     0.961550000000     0.329500000000     0          
O        O      0.760700000000     0.943750000000     0.297800000000     0          
O        O      0.720566666667     0.903550000000     0.325150000000     0          
O        O      0.763266666667     0.943500000000     0.048850000000     0          
O        O      0.768466666667     0.961000000000     0.098800000000     0          
O        O      0.704033333333     0.939600000000     0.079900000000     0          
O        O      0.761966666667     0.902750000000     0.087400000000     0          
O        O      0.715866666667     0.750300000000     0.039950000000     0          
O        O      0.721600000000     0.788250000000     0.000000000000     0          
O        O      0.935266666667     0.810050000000     0.099000000000     0          
O        O      0.870900000000     0.788450000000     0.079500000000     0          
O        O      0.927366666667     0.806250000000     0.047800000000     0          
O        O      0.887233333333     0.846450000000     0.075150000000     0          
O        O      0.929933333333     0.806500000000     0.298850000000     0          
O        O      0.935133333333     0.789000000000     0.348800000000     0          
O        O      0.870700000000     0.810400000000     0.329900000000     0          
O        O      0.928633333333     0.847250000000     0.337400000000     0          
O        O      0.883433333333     0.864750000000     0.125000000000     0          
O        O      0.833333333333     0.884400000000     0.090100000000     0          
O        O      0.833333333333     0.954800000000     0.285300000000     0          
O        O      0.882533333333     0.999700000000     0.289950000000     0          
O        O      0.888266666667     0.961750000000     0.250000000000     0          
O        O      0.833333333333     0.955500000000     0.034950000000     0          
O        O      0.833333333333     0.942350000000     0.375000000000     0          
O        O      0.879266666667     0.989750000000     0.375000000000     0          
O        O      0.833333333333     0.962850000000     0.125000000000     0          
O        O      0.833333333333     0.739450000000     0.093050000000     0          
O        O      0.833333333333     0.786750000000     0.125000000000     0          
O        O      0.833333333333     0.807950000000     0.375000000000     0          
O        O      0.731400000000     0.689950000000     0.349000000000     0          
O        O      0.795766666667     0.711550000000     0.329500000000     0          
O        O      0.739300000000     0.693750000000     0.297800000000     0          
O        O      0.779433333333     0.653550000000     0.325150000000     0          
O        O      0.736733333333     0.693500000000     0.048850000000     0          
O        O      0.731533333333     0.711000000000     0.098800000000     0          
O        O      0.795966666667     0.689600000000     0.079900000000     0          
O        O      0.738033333333     0.652750000000     0.087400000000     0          
O        O      0.783233333333     0.635250000000     0.375000000000     0          
O        O      0.833333333333     0.615600000000     0.340100000000     0          
O        O      0.833333333333     0.545200000000     0.035300000000     0          
O        O      0.784133333333     0.500300000000     0.039950000000     0          
O        O      0.778400000000     0.538250000000     0.000000000000     0          
O        O      0.833333333333     0.544500000000     0.284950000000     0          
O        O      0.833333333333     0.557650000000     0.125000000000     0          
O        O      0.787400000000     0.510250000000     0.125000000000     0          
O        O      0.833333333333     0.537150000000     0.375000000000     0          
O        O      0.833333333333     0.760550000000     0.343050000000     0          
O        O      0.833333333333     0.713250000000     0.375000000000     0          
O        O      0.833333333333     0.692050000000     0.125000000000     0          
O        O      0.935266666667     0.689950000000     0.401000000000     0          
O        O      0.870900000000     0.711550000000     0.420500000000     0          
O        O      0.927366666667     0.693750000000     0.452200000000     0          
O        O      0.887233333333     0.653550000000     0.424850000000     0          
O        O      0.929933333333     0.693500000000     0.201150000000     0          
O        O      0.935133333333     0.711000000000     0.151200000000     0          
O        O      0.870700000000     0.689600000000     0.170100000000     0          
O        O      0.928633333333     0.652750000000     0.162600000000     0          
O        O      0.883433333333     0.635250000000     0.375000000000     0          
O        O      0.833333333333     0.615600000000     0.409900000000     0          
O        O      0.833333333333     0.545200000000     0.214700000000     0          
O        O      0.882533333333     0.500300000000     0.210050000000     0          
O        O      0.888266666667     0.538250000000     0.250000000000     0          
O        O      0.833333333333     0.544500000000     0.465050000000     0          
O        O      0.879266666667     0.510250000000     0.125000000000     0          
O        O      0.833333333333     0.760550000000     0.406950000000     0          
O        O      0.731400000000     0.810050000000     0.151000000000     0          
O        O      0.795766666667     0.788450000000     0.170500000000     0          
O        O      0.739300000000     0.806250000000     0.202200000000     0          
O        O      0.779433333333     0.846450000000     0.174850000000     0          
O        O      0.736733333333     0.806500000000     0.451150000000     0          
O        O      0.731533333333     0.789000000000     0.401200000000     0          
O        O      0.795966666667     0.810400000000     0.420100000000     0          
O        O      0.738033333333     0.847250000000     0.412600000000     0          
O        O      0.783233333333     0.864750000000     0.125000000000     0          
O        O      0.833333333333     0.884400000000     0.159900000000     0          
O        O      0.833333333333     0.954800000000     0.464700000000     0          
O        O      0.784133333333     0.999700000000     0.460050000000     0          
O        O      0.778400000000     0.961750000000     0.000000000000     0          
O        O      0.833333333333     0.955500000000     0.215050000000     0          
O        O      0.787400000000     0.989750000000     0.375000000000     0          
O        O      0.833333333333     0.739450000000     0.156950000000     0          
O        O      0.731400000000     0.689950000000     0.401000000000     0          
O        O      0.795766666667     0.711550000000     0.420500000000     0          
O        O      0.739300000000     0.693750000000     0.452200000000     0          
O        O      0.779433333333     0.653550000000     0.424850000000     0          
O        O      0.736733333333     0.693500000000     0.201150000000     0          
O        O      0.731533333333     0.711000000000     0.151200000000     0          
O        O      0.795966666667     0.689600000000     0.170100000000     0          
O        O      0.738033333333     0.652750000000     0.162600000000     0          
O        O      0.784133333333     0.500300000000     0.210050000000     0          
O        O      0.778400000000     0.538250000000     0.250000000000     0          
O        O      0.935266666667     0.810050000000     0.151000000000     0          
O        O      0.870900000000     0.788450000000     0.170500000000     0          
O        O      0.927366666667     0.806250000000     0.202200000000     0          
O        O      0.887233333333     0.846450000000     0.174850000000     0          
O        O      0.929933333333     0.806500000000     0.451150000000     0          
O        O      0.935133333333     0.789000000000     0.401200000000     0          
O        O      0.870700000000     0.810400000000     0.420100000000     0          
O        O      0.928633333333     0.847250000000     0.412600000000     0          
O        O      0.882533333333     0.999700000000     0.460050000000     0          
O        O      0.888266666667     0.961750000000     0.000000000000     0          
O        O      0.731400000000     0.810050000000     0.099000000000     0          
O        O      0.795766666667     0.788450000000     0.079500000000     0          
O        O      0.739300000000     0.806250000000     0.047800000000     0          
O        O      0.779433333333     0.846450000000     0.075150000000     0          
O        O      0.736733333333     0.806500000000     0.298850000000     0          
O        O      0.731533333333     0.789000000000     0.348800000000     0          
O        O      0.795966666667     0.810400000000     0.329900000000     0          
O        O      0.738033333333     0.847250000000     0.337400000000     0          
O        O      0.784133333333     0.999700000000     0.289950000000     0          
O        O      0.778400000000     0.961750000000     0.250000000000     0          
O        O      0.935266666667     0.689950000000     0.349000000000     0          
O        O      0.870900000000     0.711550000000     0.329500000000     0          
O        O      0.927366666667     0.693750000000     0.297800000000     0          
O        O      0.887233333333     0.653550000000     0.325150000000     0          
O        O      0.929933333333     0.693500000000     0.048850000000     0          
O        O      0.935133333333     0.711000000000     0.098800000000     0          
O        O      0.870700000000     0.689600000000     0.079900000000     0          
O        O      0.928633333333     0.652750000000     0.087400000000     0          
O        O      0.882533333333     0.500300000000     0.039950000000     0          
O        O      0.888266666667     0.538250000000     0.000000000000     0          
O        O      0.768600000000     0.560050000000     0.599000000000     0          
O        O      0.704233333333     0.538450000000     0.579500000000     0          
O        O      0.760700000000     0.556250000000     0.547800000000     0          
O        O      0.720566666667     0.596450000000     0.575150000000     0          
O        O      0.763266666667     0.556500000000     0.798850000000     0          
O        O      0.768466666667     0.539000000000     0.848800000000     0          
O        O      0.704033333333     0.560400000000     0.829900000000     0          
O        O      0.761966666667     0.597250000000     0.837400000000     0          
O        O      0.716766666667     0.614750000000     0.625000000000     0          
O        O      0.666666666667     0.634400000000     0.590100000000     0          
O        O      0.666666666667     0.704800000000     0.785300000000     0          
O        O      0.715866666667     0.749700000000     0.789950000000     0          
O        O      0.721600000000     0.711750000000     0.750000000000     0          
O        O      0.666666666667     0.705500000000     0.534950000000     0          
O        O      0.666666666667     0.692350000000     0.875000000000     0          
O        O      0.712600000000     0.739750000000     0.875000000000     0          
O        O      0.666666666667     0.712850000000     0.625000000000     0          
O        O      0.666666666667     0.989450000000     0.593050000000     0          
O        O      0.666666666667     0.536750000000     0.625000000000     0          
O        O      0.666666666667     0.557950000000     0.875000000000     0          
O        O      0.898066666667     0.939950000000     0.849000000000     0          
O        O      0.962433333333     0.961550000000     0.829500000000     0          
O        O      0.905966666667     0.943750000000     0.797800000000     0          
O        O      0.946100000000     0.903550000000     0.825150000000     0          
O        O      0.903400000000     0.943500000000     0.548850000000     0          
O        O      0.898200000000     0.961000000000     0.598800000000     0          
O        O      0.962633333333     0.939600000000     0.579900000000     0          
O        O      0.904700000000     0.902750000000     0.587400000000     0          
O        O      0.949900000000     0.885250000000     0.875000000000     0          
O        O      0.666666666667     0.865600000000     0.840100000000     0          
O        O      0.666666666667     0.795200000000     0.535300000000     0          
O        O      0.950800000000     0.750300000000     0.539950000000     0          
O        O      0.945066666667     0.788250000000     0.500000000000     0          
O        O      0.666666666667     0.794500000000     0.784950000000     0          
O        O      0.666666666667     0.807650000000     0.625000000000     0          
O        O      0.954066666667     0.760250000000     0.625000000000     0          
O        O      0.666666666667     0.787150000000     0.875000000000     0          
O        O      0.666666666667     0.510550000000     0.843050000000     0          
O        O      0.666666666667     0.963250000000     0.875000000000     0          
O        O      0.666666666667     0.942050000000     0.625000000000     0          
O        O      0.768600000000     0.939950000000     0.901000000000     0          
O        O      0.704233333333     0.961550000000     0.920500000000     0          
O        O      0.760700000000     0.943750000000     0.952200000000     0          
O        O      0.720566666667     0.903550000000     0.924850000000     0          
O        O      0.763266666667     0.943500000000     0.701150000000     0          
O        O      0.768466666667     0.961000000000     0.651200000000     0          
O        O      0.704033333333     0.939600000000     0.670100000000     0          
O        O      0.761966666667     0.902750000000     0.662600000000     0          
O        O      0.716766666667     0.885250000000     0.875000000000     0          
O        O      0.666666666667     0.865600000000     0.909900000000     0          
O        O      0.666666666667     0.795200000000     0.714700000000     0          
O        O      0.715866666667     0.750300000000     0.710050000000     0          
O        O      0.721600000000     0.788250000000     0.750000000000     0          
O        O      0.666666666667     0.794500000000     0.965050000000     0          
O        O      0.712600000000     0.760250000000     0.625000000000     0          
O        O      0.666666666667     0.510550000000     0.906950000000     0          
O        O      0.898066666667     0.560050000000     0.651000000000     0          
O        O      0.962433333333     0.538450000000     0.670500000000     0          
O        O      0.905966666667     0.556250000000     0.702200000000     0          
O        O      0.946100000000     0.596450000000     0.674850000000     0          
O        O      0.903400000000     0.556500000000     0.951150000000     0          
O        O      0.898200000000     0.539000000000     0.901200000000     0          
O        O      0.962633333333     0.560400000000     0.920100000000     0          
O        O      0.904700000000     0.597250000000     0.912600000000     0          
O        O      0.949900000000     0.614750000000     0.625000000000     0          
O        O      0.666666666667     0.634400000000     0.659900000000     0          
O        O      0.666666666667     0.704800000000     0.964700000000     0          
O        O      0.950800000000     0.749700000000     0.960050000000     0          
O        O      0.945066666667     0.711750000000     0.500000000000     0          
O        O      0.666666666667     0.705500000000     0.715050000000     0          
O        O      0.954066666667     0.739750000000     0.875000000000     0          
O        O      0.666666666667     0.989450000000     0.656950000000     0          
O        O      0.898066666667     0.939950000000     0.901000000000     0          
O        O      0.962433333333     0.961550000000     0.920500000000     0          
O        O      0.905966666667     0.943750000000     0.952200000000     0          
O        O      0.946100000000     0.903550000000     0.924850000000     0          
O        O      0.903400000000     0.943500000000     0.701150000000     0          
O        O      0.898200000000     0.961000000000     0.651200000000     0          
O        O      0.962633333333     0.939600000000     0.670100000000     0          
O        O      0.904700000000     0.902750000000     0.662600000000     0          
O        O      0.950800000000     0.750300000000     0.710050000000     0          
O        O      0.945066666667     0.788250000000     0.750000000000     0          
O        O      0.768600000000     0.560050000000     0.651000000000     0          
O        O      0.704233333333     0.538450000000     0.670500000000     0          
O        O      0.760700000000     0.556250000000     0.702200000000     0          
O        O      0.720566666667     0.596450000000     0.674850000000     0          
O        O      0.763266666667     0.556500000000     0.951150000000     0          
O        O      0.768466666667     0.539000000000     0.901200000000     0          
O        O      0.704033333333     0.560400000000     0.920100000000     0          
O        O      0.761966666667     0.597250000000     0.912600000000     0          
O        O      0.715866666667     0.749700000000     0.960050000000     0          
O        O      0.721600000000     0.711750000000     0.500000000000     0          
O        O      0.898066666667     0.560050000000     0.599000000000     0          
O        O      0.962433333333     0.538450000000     0.579500000000     0          
O        O      0.905966666667     0.556250000000     0.547800000000     0          
O        O      0.946100000000     0.596450000000     0.575150000000     0          
O        O      0.903400000000     0.556500000000     0.798850000000     0          
O        O      0.898200000000     0.539000000000     0.848800000000     0          
O        O      0.962633333333     0.560400000000     0.829900000000     0          
O        O      0.904700000000     0.597250000000     0.837400000000     0          
O        O      0.950800000000     0.749700000000     0.789950000000     0          
O        O      0.945066666667     0.711750000000     0.750000000000     0          
O        O      0.768600000000     0.939950000000     0.849000000000     0          
O        O      0.704233333333     0.961550000000     0.829500000000     0          
O        O      0.760700000000     0.943750000000     0.797800000000     0          
O        O      0.720566666667     0.903550000000     0.825150000000     0          
O        O      0.763266666667     0.943500000000     0.548850000000     0          
O        O      0.768466666667     0.961000000000     0.598800000000     0          
O        O      0.704033333333     0.939600000000     0.579900000000     0          
O        O      0.761966666667     0.902750000000     0.587400000000     0          
O        O      0.715866666667     0.750300000000     0.539950000000     0          
O        O      0.721600000000     0.788250000000     0.500000000000     0          
O        O      0.935266666667     0.810050000000     0.599000000000     0          
O        O      0.870900000000     0.788450000000     0.579500000000     0          
O        O      0.927366666667     0.806250000000     0.547800000000     0          
O        O      0.887233333333     0.846450000000     0.575150000000     0          
O        O      0.929933333333     0.806500000000     0.798850000000     0          
O        O      0.935133333333     0.789000000000     0.848800000000     0          
O        O      0.870700000000     0.810400000000     0.829900000000     0          
O        O      0.928633333333     0.847250000000     0.837400000000     0          
O        O      0.883433333333     0.864750000000     0.625000000000     0          
O        O      0.833333333333     0.884400000000     0.590100000000     0          
O        O      0.833333333333     0.954800000000     0.785300000000     0          
O        O      0.882533333333     0.999700000000     0.789950000000     0          
O        O      0.888266666667     0.961750000000     0.750000000000     0          
O        O      0.833333333333     0.955500000000     0.534950000000     0          
O        O      0.833333333333     0.942350000000     0.875000000000     0          
O        O      0.879266666667     0.989750000000     0.875000000000     0          
O        O      0.833333333333     0.962850000000     0.625000000000     0          
O        O      0.833333333333     0.739450000000     0.593050000000     0          
O        O      0.833333333333     0.786750000000     0.625000000000     0          
O        O      0.833333333333     0.807950000000     0.875000000000     0          
O        O      0.731400000000     0.689950000000     0.849000000000     0          
O        O      0.795766666667     0.711550000000     0.829500000000     0          
O        O      0.739300000000     0.693750000000     0.797800000000     0          
O        O      0.779433333333     0.653550000000     0.825150000000     0          
O        O      0.736733333333     0.693500000000     0.548850000000     0          
O        O      0.731533333333     0.711000000000     0.598800000000     0          
O        O      0.795966666667     0.689600000000     0.579900000000     0          
O        O      0.738033333333     0.652750000000     0.587400000000     0          
O        O      0.783233333333     0.635250000000     0.875000000000     0          
O        O      0.833333333333     0.615600000000     0.840100000000     0          
O        O      0.833333333333     0.545200000000     0.535300000000     0          
O        O      0.784133333333     0.500300000000     0.539950000000     0          
O        O      0.778400000000     0.538250000000     0.500000000000     0          
O        O      0.833333333333     0.544500000000     0.784950000000     0          
O        O      0.833333333333     0.557650000000     0.625000000000     0          
O        O      0.787400000000     0.510250000000     0.625000000000     0          
O        O      0.833333333333     0.537150000000     0.875000000000     0          
O        O      0.833333333333     0.760550000000     0.843050000000     0          
O        O      0.833333333333     0.713250000000     0.875000000000     0          
O        O      0.833333333333     0.692050000000     0.625000000000     0          
O        O      0.935266666667     0.689950000000     0.901000000000     0          
O        O      0.870900000000     0.711550000000     0.920500000000     0          
O        O      0.927366666667     0.693750000000     0.952200000000     0          
O        O      0.887233333333     0.653550000000     0.924850000000     0          
O        O      0.929933333333     0.693500000000     0.701150000000     0          
O        O      0.935133333333     0.711000000000     0.651200000000     0          
O        O      0.870700000000     0.689600000000     0.670100000000     0          
O        O      0.928633333333     0.652750000000     0.662600000000     0          
O        O      0.883433333333     0.635250000000     0.875000000000     0          
O        O      0.833333333333     0.615600000000     0.909900000000     0          
O        O      0.833333333333     0.545200000000     0.714700000000     0          
O        O      0.882533333333     0.500300000000     0.710050000000     0          
O        O      0.888266666667     0.538250000000     0.750000000000     0          
O        O      0.833333333333     0.544500000000     0.965050000000     0          
O        O      0.879266666667     0.510250000000     0.625000000000     0          
O        O      0.833333333333     0.760550000000     0.906950000000     0          
O        O      0.731400000000     0.810050000000     0.651000000000     0          
O        O      0.795766666667     0.788450000000     0.670500000000     0          
O        O      0.739300000000     0.806250000000     0.702200000000     0          
O        O      0.779433333333     0.846450000000     0.674850000000     0          
O        O      0.736733333333     0.806500000000     0.951150000000     0          
O        O      0.731533333333     0.789000000000     0.901200000000     0          
O        O      0.795966666667     0.810400000000     0.920100000000     0          
O        O      0.738033333333     0.847250000000     0.912600000000     0          
O        O      0.783233333333     0.864750000000     0.625000000000     0          
O        O      0.833333333333     0.884400000000     0.659900000000     0          
O        O      0.833333333333     0.954800000000     0.964700000000     0          
O        O      0.784133333333     0.999700000000     0.960050000000     0          
O        O      0.778400000000     0.961750000000     0.500000000000     0          
O        O      0.833333333333     0.955500000000     0.715050000000     0          
O        O      0.787400000000     0.989750000000     0.875000000000     0          
O        O      0.833333333333     0.739450000000     0.656950000000     0          
O        O      0.731400000000     0.689950000000     0.901000000000     0          
O        O      0.795766666667     0.711550000000     0.920500000000     0          
O        O      0.739300000000     0.693750000000     0.952200000000     0          
O        O      0.779433333333     0.653550000000     0.924850000000     0          
O        O      0.736733333333     0.693500000000     0.701150000000     0          
O        O      0.731533333333     0.711000000000     0.651200000000     0          
O        O      0.795966666667     0.689600000000     0.670100000000     0          
O        O      0.738033333333     0.652750000000     0.662600000000     0          
O        O      0.784133333333     0.500300000000     0.710050000000     0          
O        O      0.778400000000     0.538250000000     0.750000000000     0          
O        O      0.935266666667     0.810050000000     0.651000000000     0          
O        O      0.870900000000     0.788450000000     0.670500000000     0          
O        O      0.927366666667     0.806250000000     0.702200000000     0          
O        O      0.887233333333     0.846450000000     0.674850000000     0          
O        O      0.929933333333     0.806500000000     0.951150000000     0          
O        O      0.935133333333     0.789000000000     0.901200000000     0          
O        O      0.870700000000     0.810400000000     0.920100000000     0          
O        O      0.928633333333     0.847250000000     0.912600000000     0          
O        O      0.882533333333     0.999700000000     0.960050000000     0          
O        O      0.888266666667     0.961750000000     0.500000000000     0          
O        O      0.731400000000     0.810050000000     0.599000000000     0          
O        O      0.795766666667     0.788450000000     0.579500000000     0          
O        O      0.739300000000     0.806250000000     0.547800000000     0          
O        O      0.779433333333     0.846450000000     0.575150000000     0          
O        O      0.736733333333     0.806500000000     0.798850000000     0          
O        O      0.731533333333     0.789000000000     0.848800000000     0          
O        O      0.795966666667     0.810400000000     0.829900000000     0          
O        O      0.738033333333     0.847250000000     0.837400000000     0          
O        O      0.784133333333     0.999700000000     0.789950000000     0          
O        O      0.778400000000     0.961750000000     0.750000000000     0          
O        O      0.935266666667     0.689950000000     0.849000000000     0          
O        O      0.870900000000     0.711550000000     0.829500000000     0          
O        O      0.927366666667     0.693750000000     0.797800000000     0          
O        O      0.887233333333     0.653550000000     0.825150000000     0          
O        O      0.929933333333     0.693500000000     0.548850000000     0          
O        O      0.935133333333     0.711000000000     0.598800000000     0          
O        O      0.870700000000     0.689600000000     0.579900000000     0          
O        O      0.928633333333     0.652750000000     0.587400000000     0          
O        O      0.882533333333     0.500300000000     0.539950000000     0          
O        O      0.888266666667     0.538250000000     0.500000000000     0          


