data_zeolite

_audit_creation_method RASPA-1.0
_audit_creation_date 2021-6-7
_audit_author_name ''

_cell_length_a    28.592
_cell_length_b    56.788
_cell_length_c    40.58
_cell_angle_alpha 90
_cell_angle_beta  90
_cell_angle_gamma 90
_cell_volume      65889

_symmetry_cell_setting          orthorhombic
_symmetry_space_group_name_Hall 'P 1'
_symmetry_space_group_name_H-M  'P 1'
_symmetry_Int_Tables_number     1

_symmetry_equiv_pos_as_xyz 'x,y,z'

loop_
_atom_site_label
_atom_site_type_symbol
_atom_site_fract_x
_atom_site_fract_y
_atom_site_fract_z
_atom_site_charge
O        O      0.296100000000     0.434500000000     0.277800000000     0          
O        O      0.250000000000     0.400000000000     0.249200000000     0          
O        O      0.250000000000     0.404100000000     0.313850000000     0          
O        O      0.204050000000     0.365600000000     0.330050000000     0          
O        O      0.250000000000     0.389500000000     0.375000000000     0          
O        O      0.250000000000     0.283700000000     0.375000000000     0          
O        O      0.296050000000     0.306800000000     0.329350000000     0          
O        O      0.250000000000     0.268200000000     0.314150000000     0          
O        O      0.250000000000     0.272700000000     0.000350000000     0          
O        O      0.295750000000     0.237800000000     0.472550000000     0          
O        O      0.250000000000     0.071900000000     0.315850000000     0          
O        O      0.204050000000     0.110600000000     0.331800000000     0          
O        O      0.250000000000     0.108600000000     0.276200000000     0          
O        O      0.250000000000     0.035800000000     0.275000000000     0          
O        O      0.295750000000     0.033100000000     0.330950000000     0          
O        O      0.113550000000     0.034600000000     0.024150000000     0          
O        O      0.098450000000     0.063700000000     0.474700000000     0          
O        O      0.134100000000     0.079800000000     0.029850000000     0          
O        O      0.116450000000     0.163500000000     0.074000000000     0          
O        O      0.129350000000     0.117900000000     0.066000000000     0          
O        O      0.112600000000     0.134800000000     0.125000000000     0          
O        O      0.133300000000     0.208400000000     0.080550000000     0          
O        O      0.096900000000     0.192300000000     0.025450000000     0          
O        O      0.117700000000     0.291200000000     0.029400000000     0          
O        O      0.125000000000     0.250000000000     0.000000000000     0          
O        O      0.118350000000     0.252500000000     0.064550000000     0          
O        O      0.113650000000     0.385100000000     0.125000000000     0          
O        O      0.128550000000     0.373500000000     0.062900000000     0          
O        O      0.117200000000     0.418100000000     0.079750000000     0          
O        O      0.136650000000     0.463500000000     0.076750000000     0          
O        O      0.096450000000     0.504000000000     0.064300000000     0          
O        O      0.098900000000     0.487900000000     0.125000000000     0          
O        O      0.204200000000     0.034600000000     0.031700000000     0          
O        O      0.164200000000     0.000000000000     0.000000000000     0          
O        O      0.203700000000     0.110600000000     0.029750000000     0          
O        O      0.123550000000     0.120900000000     0.001400000000     0          
O        O      0.204000000000     0.238300000000     0.078100000000     0          
O        O      0.141150000000     0.241800000000     0.125000000000     0          
O        O      0.203950000000     0.307500000000     0.028350000000     0          
O        O      0.132200000000     0.336500000000     0.023450000000     0          
O        O      0.203800000000     0.364600000000     0.027100000000     0          
O        O      0.204150000000     0.432700000000     0.078300000000     0          
O        O      0.250000000000     0.072500000000     0.014300000000     0          
O        O      0.250000000000     0.260400000000     0.125000000000     0          
O        O      0.250000000000     0.277200000000     0.064850000000     0          
O        O      0.250000000000     0.393600000000     0.065000000000     0          
O        O      0.250000000000     0.410300000000     0.125000000000     0          
T        Si     0.098200000000     0.061000000000     0.014150000000     0          
T        Si     0.097900000000     0.189400000000     0.064850000000     0          
T        Si     0.101800000000     0.264000000000     0.030250000000     0          
T        Si     0.158500000000     0.018100000000     0.030150000000     0          
T        Si     0.151900000000     0.310800000000     0.013950000000     0          
T        Si     0.147550000000     0.363600000000     0.028250000000     0          
T        Si     0.152100000000     0.437600000000     0.064850000000     0          
T        Si     0.101600000000     0.391300000000     0.087200000000     0          
T        Si     0.094200000000     0.480700000000     0.086800000000     0          
T        Si     0.147800000000     0.107200000000     0.031650000000     0          
T        Si     0.149450000000     0.235100000000     0.086900000000     0          
T        Si     0.101150000000     0.137600000000     0.086400000000     0          
T        Si     0.250000000000     0.418300000000     0.279500000000     0          
T        Si     0.250000000000     0.254200000000     0.470350000000     0          
T        Si     0.250000000000     0.291200000000     0.219600000000     0          
T        Si     0.250000000000     0.380700000000     0.029750000000     0          
T        Si     0.250000000000     0.417400000000     0.086650000000     0          
T        Si     0.250000000000     0.291400000000     0.336850000000     0          
T        Si     0.250000000000     0.381200000000     0.337100000000     0          
T        Si     0.250000000000     0.100200000000     0.314100000000     0          
T        Si     0.250000000000     0.043600000000     0.313100000000     0          
T        Si     0.250000000000     0.044200000000     0.012900000000     0          
T        Si     0.250000000000     0.100700000000     0.011900000000     0          
T        Si     0.250000000000     0.253500000000     0.086550000000     0          
O        O      0.203900000000     0.565500000000     0.027800000000     0          
O        O      0.250000000000     0.600000000000     0.499200000000     0          
O        O      0.250000000000     0.595900000000     0.063850000000     0          
O        O      0.295950000000     0.634400000000     0.080050000000     0          
O        O      0.250000000000     0.610500000000     0.125000000000     0          
O        O      0.250000000000     0.716300000000     0.125000000000     0          
O        O      0.203950000000     0.693200000000     0.079350000000     0          
O        O      0.250000000000     0.731800000000     0.064150000000     0          
O        O      0.250000000000     0.727300000000     0.250350000000     0          
O        O      0.204250000000     0.762200000000     0.222550000000     0          
O        O      0.250000000000     0.928100000000     0.065850000000     0          
O        O      0.295950000000     0.889400000000     0.081800000000     0          
O        O      0.250000000000     0.891400000000     0.026200000000     0          
O        O      0.250000000000     0.964200000000     0.025000000000     0          
O        O      0.204250000000     0.966900000000     0.080950000000     0          
O        O      0.386450000000     0.965400000000     0.274150000000     0          
O        O      0.401550000000     0.936300000000     0.224700000000     0          
O        O      0.365900000000     0.920200000000     0.279850000000     0          
O        O      0.383550000000     0.836500000000     0.324000000000     0          
O        O      0.370650000000     0.882100000000     0.316000000000     0          
O        O      0.387400000000     0.865200000000     0.375000000000     0          
O        O      0.366700000000     0.791600000000     0.330550000000     0          
O        O      0.403100000000     0.807700000000     0.275450000000     0          
O        O      0.382300000000     0.708800000000     0.279400000000     0          
O        O      0.375000000000     0.750000000000     0.250000000000     0          
O        O      0.381650000000     0.747500000000     0.314550000000     0          
O        O      0.386350000000     0.614900000000     0.375000000000     0          
O        O      0.371450000000     0.626500000000     0.312900000000     0          
O        O      0.382800000000     0.581900000000     0.329750000000     0          
O        O      0.363350000000     0.536500000000     0.326750000000     0          
O        O      0.403550000000     0.496000000000     0.314300000000     0          
O        O      0.401100000000     0.512100000000     0.375000000000     0          
O        O      0.295800000000     0.965400000000     0.281700000000     0          
O        O      0.335800000000     0.000000000000     0.250000000000     0          
O        O      0.296300000000     0.889400000000     0.279750000000     0          
O        O      0.376450000000     0.879100000000     0.251400000000     0          
O        O      0.296000000000     0.761700000000     0.328100000000     0          
O        O      0.358850000000     0.758200000000     0.375000000000     0          
O        O      0.296050000000     0.692500000000     0.278350000000     0          
O        O      0.367800000000     0.663500000000     0.273450000000     0          
O        O      0.296200000000     0.635400000000     0.277100000000     0          
O        O      0.295850000000     0.567300000000     0.328300000000     0          
O        O      0.250000000000     0.927500000000     0.264300000000     0          
O        O      0.250000000000     0.739600000000     0.375000000000     0          
O        O      0.250000000000     0.722800000000     0.314850000000     0          
O        O      0.250000000000     0.606400000000     0.315000000000     0          
O        O      0.250000000000     0.589700000000     0.375000000000     0          
T        Si     0.401800000000     0.939000000000     0.264150000000     0          
T        Si     0.402100000000     0.810600000000     0.314850000000     0          
T        Si     0.398200000000     0.736000000000     0.280250000000     0          
T        Si     0.341500000000     0.981900000000     0.280150000000     0          
T        Si     0.348100000000     0.689200000000     0.263950000000     0          
T        Si     0.352450000000     0.636400000000     0.278250000000     0          
T        Si     0.347900000000     0.562400000000     0.314850000000     0          
T        Si     0.398400000000     0.608700000000     0.337200000000     0          
T        Si     0.405800000000     0.519300000000     0.336800000000     0          
T        Si     0.352200000000     0.892800000000     0.281650000000     0          
T        Si     0.350550000000     0.764900000000     0.336900000000     0          
T        Si     0.398850000000     0.862400000000     0.336400000000     0          
T        Si     0.250000000000     0.581700000000     0.029500000000     0          
T        Si     0.250000000000     0.745800000000     0.220350000000     0          
T        Si     0.250000000000     0.708800000000     0.469600000000     0          
T        Si     0.250000000000     0.619300000000     0.279750000000     0          
T        Si     0.250000000000     0.582600000000     0.336650000000     0          
T        Si     0.250000000000     0.708600000000     0.086850000000     0          
T        Si     0.250000000000     0.618800000000     0.087100000000     0          
T        Si     0.250000000000     0.899800000000     0.064100000000     0          
T        Si     0.250000000000     0.956400000000     0.063100000000     0          
T        Si     0.250000000000     0.955800000000     0.262900000000     0          
T        Si     0.250000000000     0.899300000000     0.261900000000     0          
T        Si     0.250000000000     0.746500000000     0.336550000000     0          
O        O      0.296100000000     0.565500000000     0.222200000000     0          
O        O      0.250000000000     0.600000000000     0.250800000000     0          
O        O      0.250000000000     0.595900000000     0.186150000000     0          
O        O      0.204050000000     0.634400000000     0.169950000000     0          
O        O      0.296050000000     0.693200000000     0.170650000000     0          
O        O      0.250000000000     0.731800000000     0.185850000000     0          
O        O      0.250000000000     0.727300000000     0.499650000000     0          
O        O      0.295750000000     0.762200000000     0.027450000000     0          
O        O      0.250000000000     0.928100000000     0.184150000000     0          
O        O      0.204050000000     0.889400000000     0.168200000000     0          
O        O      0.250000000000     0.891400000000     0.223800000000     0          
O        O      0.250000000000     0.964200000000     0.225000000000     0          
O        O      0.295750000000     0.966900000000     0.169050000000     0          
O        O      0.113550000000     0.965400000000     0.475850000000     0          
O        O      0.098450000000     0.936300000000     0.025300000000     0          
O        O      0.134100000000     0.920200000000     0.470150000000     0          
O        O      0.116450000000     0.836500000000     0.426000000000     0          
O        O      0.129350000000     0.882100000000     0.434000000000     0          
O        O      0.112600000000     0.865200000000     0.375000000000     0          
O        O      0.133300000000     0.791600000000     0.419450000000     0          
O        O      0.096900000000     0.807700000000     0.474550000000     0          
O        O      0.117700000000     0.708800000000     0.470600000000     0          
O        O      0.125000000000     0.750000000000     0.000000000000     0          
O        O      0.118350000000     0.747500000000     0.435450000000     0          
O        O      0.113650000000     0.614900000000     0.375000000000     0          
O        O      0.128550000000     0.626500000000     0.437100000000     0          
O        O      0.117200000000     0.581900000000     0.420250000000     0          
O        O      0.136650000000     0.536500000000     0.423250000000     0          
O        O      0.096450000000     0.496000000000     0.435700000000     0          
O        O      0.098900000000     0.512100000000     0.375000000000     0          
O        O      0.204200000000     0.965400000000     0.468300000000     0          
O        O      0.203700000000     0.889400000000     0.470250000000     0          
O        O      0.123550000000     0.879100000000     0.498600000000     0          
O        O      0.204000000000     0.761700000000     0.421900000000     0          
O        O      0.141150000000     0.758200000000     0.375000000000     0          
O        O      0.203950000000     0.692500000000     0.471650000000     0          
O        O      0.132200000000     0.663500000000     0.476550000000     0          
O        O      0.203800000000     0.635400000000     0.472900000000     0          
O        O      0.204150000000     0.567300000000     0.421700000000     0          
O        O      0.250000000000     0.927500000000     0.485700000000     0          
O        O      0.250000000000     0.722800000000     0.435150000000     0          
O        O      0.250000000000     0.606400000000     0.435000000000     0          
T        Si     0.098200000000     0.939000000000     0.485850000000     0          
T        Si     0.097900000000     0.810600000000     0.435150000000     0          
T        Si     0.101800000000     0.736000000000     0.469750000000     0          
T        Si     0.158500000000     0.981900000000     0.469850000000     0          
T        Si     0.151900000000     0.689200000000     0.486050000000     0          
T        Si     0.147550000000     0.636400000000     0.471750000000     0          
T        Si     0.152100000000     0.562400000000     0.435150000000     0          
T        Si     0.101600000000     0.608700000000     0.412800000000     0          
T        Si     0.094200000000     0.519300000000     0.413200000000     0          
T        Si     0.147800000000     0.892800000000     0.468350000000     0          
T        Si     0.149450000000     0.764900000000     0.413100000000     0          
T        Si     0.101150000000     0.862400000000     0.413600000000     0          
T        Si     0.250000000000     0.581700000000     0.220500000000     0          
T        Si     0.250000000000     0.745800000000     0.029650000000     0          
T        Si     0.250000000000     0.708800000000     0.280400000000     0          
T        Si     0.250000000000     0.619300000000     0.470250000000     0          
T        Si     0.250000000000     0.582600000000     0.413350000000     0          
T        Si     0.250000000000     0.708600000000     0.163150000000     0          
T        Si     0.250000000000     0.618800000000     0.162900000000     0          
T        Si     0.250000000000     0.899800000000     0.185900000000     0          
T        Si     0.250000000000     0.956400000000     0.186900000000     0          
T        Si     0.250000000000     0.955800000000     0.487100000000     0          
T        Si     0.250000000000     0.899300000000     0.488100000000     0          
T        Si     0.250000000000     0.746500000000     0.413450000000     0          
O        O      0.203900000000     0.434500000000     0.472200000000     0          
O        O      0.250000000000     0.400000000000     0.000800000000     0          
O        O      0.250000000000     0.404100000000     0.436150000000     0          
O        O      0.295950000000     0.365600000000     0.419950000000     0          
O        O      0.203950000000     0.306800000000     0.420650000000     0          
O        O      0.250000000000     0.268200000000     0.435850000000     0          
O        O      0.250000000000     0.272700000000     0.249650000000     0          
O        O      0.204250000000     0.237800000000     0.277450000000     0          
O        O      0.250000000000     0.071900000000     0.434150000000     0          
O        O      0.295950000000     0.110600000000     0.418200000000     0          
O        O      0.250000000000     0.108600000000     0.473800000000     0          
O        O      0.250000000000     0.035800000000     0.475000000000     0          
O        O      0.204250000000     0.033100000000     0.419050000000     0          
O        O      0.386450000000     0.034600000000     0.225850000000     0          
O        O      0.401550000000     0.063700000000     0.275300000000     0          
O        O      0.365900000000     0.079800000000     0.220150000000     0          
O        O      0.383550000000     0.163500000000     0.176000000000     0          
O        O      0.370650000000     0.117900000000     0.184000000000     0          
O        O      0.387400000000     0.134800000000     0.125000000000     0          
O        O      0.366700000000     0.208400000000     0.169450000000     0          
O        O      0.403100000000     0.192300000000     0.224550000000     0          
O        O      0.382300000000     0.291200000000     0.220600000000     0          
O        O      0.375000000000     0.250000000000     0.250000000000     0          
O        O      0.381650000000     0.252500000000     0.185450000000     0          
O        O      0.386350000000     0.385100000000     0.125000000000     0          
O        O      0.371450000000     0.373500000000     0.187100000000     0          
O        O      0.382800000000     0.418100000000     0.170250000000     0          
O        O      0.363350000000     0.463500000000     0.173250000000     0          
O        O      0.403550000000     0.504000000000     0.185700000000     0          
O        O      0.401100000000     0.487900000000     0.125000000000     0          
O        O      0.295800000000     0.034600000000     0.218300000000     0          
O        O      0.296300000000     0.110600000000     0.220250000000     0          
O        O      0.376450000000     0.120900000000     0.248600000000     0          
O        O      0.296000000000     0.238300000000     0.171900000000     0          
O        O      0.358850000000     0.241800000000     0.125000000000     0          
O        O      0.296050000000     0.307500000000     0.221650000000     0          
O        O      0.367800000000     0.336500000000     0.226550000000     0          
O        O      0.296200000000     0.364600000000     0.222900000000     0          
O        O      0.295850000000     0.432700000000     0.171700000000     0          
O        O      0.250000000000     0.072500000000     0.235700000000     0          
O        O      0.250000000000     0.277200000000     0.185150000000     0          
O        O      0.250000000000     0.393600000000     0.185000000000     0          
T        Si     0.401800000000     0.061000000000     0.235850000000     0          
T        Si     0.402100000000     0.189400000000     0.185150000000     0          
T        Si     0.398200000000     0.264000000000     0.219750000000     0          
T        Si     0.341500000000     0.018100000000     0.219850000000     0          
T        Si     0.348100000000     0.310800000000     0.236050000000     0          
T        Si     0.352450000000     0.363600000000     0.221750000000     0          
T        Si     0.347900000000     0.437600000000     0.185150000000     0          
T        Si     0.398400000000     0.391300000000     0.162800000000     0          
T        Si     0.405800000000     0.480700000000     0.163200000000     0          
T        Si     0.352200000000     0.107200000000     0.218350000000     0          
T        Si     0.350550000000     0.235100000000     0.163100000000     0          
T        Si     0.398850000000     0.137600000000     0.163600000000     0          
T        Si     0.250000000000     0.418300000000     0.470500000000     0          
T        Si     0.250000000000     0.254200000000     0.279650000000     0          
T        Si     0.250000000000     0.291200000000     0.030400000000     0          
T        Si     0.250000000000     0.380700000000     0.220250000000     0          
T        Si     0.250000000000     0.417400000000     0.163350000000     0          
T        Si     0.250000000000     0.291400000000     0.413150000000     0          
T        Si     0.250000000000     0.381200000000     0.412900000000     0          
T        Si     0.250000000000     0.100200000000     0.435900000000     0          
T        Si     0.250000000000     0.043600000000     0.436900000000     0          
T        Si     0.250000000000     0.044200000000     0.237100000000     0          
T        Si     0.250000000000     0.100700000000     0.238100000000     0          
T        Si     0.250000000000     0.253500000000     0.163450000000     0          
O        O      0.203900000000     0.565500000000     0.222200000000     0          
O        O      0.295950000000     0.634400000000     0.169950000000     0          
O        O      0.203950000000     0.693200000000     0.170650000000     0          
O        O      0.204250000000     0.762200000000     0.027450000000     0          
O        O      0.295950000000     0.889400000000     0.168200000000     0          
O        O      0.204250000000     0.966900000000     0.169050000000     0          
O        O      0.386450000000     0.965400000000     0.475850000000     0          
O        O      0.401550000000     0.936300000000     0.025300000000     0          
O        O      0.365900000000     0.920200000000     0.470150000000     0          
O        O      0.383550000000     0.836500000000     0.426000000000     0          
O        O      0.370650000000     0.882100000000     0.434000000000     0          
O        O      0.366700000000     0.791600000000     0.419450000000     0          
O        O      0.403100000000     0.807700000000     0.474550000000     0          
O        O      0.382300000000     0.708800000000     0.470600000000     0          
O        O      0.375000000000     0.750000000000     0.000000000000     0          
O        O      0.381650000000     0.747500000000     0.435450000000     0          
O        O      0.371450000000     0.626500000000     0.437100000000     0          
O        O      0.382800000000     0.581900000000     0.420250000000     0          
O        O      0.363350000000     0.536500000000     0.423250000000     0          
O        O      0.403550000000     0.496000000000     0.435700000000     0          
O        O      0.295800000000     0.965400000000     0.468300000000     0          
O        O      0.335800000000     0.000000000000     0.000000000000     0          
O        O      0.296300000000     0.889400000000     0.470250000000     0          
O        O      0.376450000000     0.879100000000     0.498600000000     0          
O        O      0.296000000000     0.761700000000     0.421900000000     0          
O        O      0.296050000000     0.692500000000     0.471650000000     0          
O        O      0.367800000000     0.663500000000     0.476550000000     0          
O        O      0.296200000000     0.635400000000     0.472900000000     0          
O        O      0.295850000000     0.567300000000     0.421700000000     0          
T        Si     0.401800000000     0.939000000000     0.485850000000     0          
T        Si     0.402100000000     0.810600000000     0.435150000000     0          
T        Si     0.398200000000     0.736000000000     0.469750000000     0          
T        Si     0.341500000000     0.981900000000     0.469850000000     0          
T        Si     0.348100000000     0.689200000000     0.486050000000     0          
T        Si     0.352450000000     0.636400000000     0.471750000000     0          
T        Si     0.347900000000     0.562400000000     0.435150000000     0          
T        Si     0.398400000000     0.608700000000     0.412800000000     0          
T        Si     0.405800000000     0.519300000000     0.413200000000     0          
T        Si     0.352200000000     0.892800000000     0.468350000000     0          
T        Si     0.350550000000     0.764900000000     0.413100000000     0          
T        Si     0.398850000000     0.862400000000     0.413600000000     0          
O        O      0.296100000000     0.434500000000     0.472200000000     0          
O        O      0.204050000000     0.365600000000     0.419950000000     0          
O        O      0.296050000000     0.306800000000     0.420650000000     0          
O        O      0.295750000000     0.237800000000     0.277450000000     0          
O        O      0.204050000000     0.110600000000     0.418200000000     0          
O        O      0.295750000000     0.033100000000     0.419050000000     0          
O        O      0.113550000000     0.034600000000     0.225850000000     0          
O        O      0.098450000000     0.063700000000     0.275300000000     0          
O        O      0.134100000000     0.079800000000     0.220150000000     0          
O        O      0.116450000000     0.163500000000     0.176000000000     0          
O        O      0.129350000000     0.117900000000     0.184000000000     0          
O        O      0.133300000000     0.208400000000     0.169450000000     0          
O        O      0.096900000000     0.192300000000     0.224550000000     0          
O        O      0.117700000000     0.291200000000     0.220600000000     0          
O        O      0.125000000000     0.250000000000     0.250000000000     0          
O        O      0.118350000000     0.252500000000     0.185450000000     0          
O        O      0.128550000000     0.373500000000     0.187100000000     0          
O        O      0.117200000000     0.418100000000     0.170250000000     0          
O        O      0.136650000000     0.463500000000     0.173250000000     0          
O        O      0.096450000000     0.504000000000     0.185700000000     0          
O        O      0.204200000000     0.034600000000     0.218300000000     0          
O        O      0.164200000000     0.000000000000     0.250000000000     0          
O        O      0.203700000000     0.110600000000     0.220250000000     0          
O        O      0.123550000000     0.120900000000     0.248600000000     0          
O        O      0.204000000000     0.238300000000     0.171900000000     0          
O        O      0.203950000000     0.307500000000     0.221650000000     0          
O        O      0.132200000000     0.336500000000     0.226550000000     0          
O        O      0.203800000000     0.364600000000     0.222900000000     0          
O        O      0.204150000000     0.432700000000     0.171700000000     0          
T        Si     0.098200000000     0.061000000000     0.235850000000     0          
T        Si     0.097900000000     0.189400000000     0.185150000000     0          
T        Si     0.101800000000     0.264000000000     0.219750000000     0          
T        Si     0.158500000000     0.018100000000     0.219850000000     0          
T        Si     0.151900000000     0.310800000000     0.236050000000     0          
T        Si     0.147550000000     0.363600000000     0.221750000000     0          
T        Si     0.152100000000     0.437600000000     0.185150000000     0          
T        Si     0.101600000000     0.391300000000     0.162800000000     0          
T        Si     0.094200000000     0.480700000000     0.163200000000     0          
T        Si     0.147800000000     0.107200000000     0.218350000000     0          
T        Si     0.149450000000     0.235100000000     0.163100000000     0          
T        Si     0.101150000000     0.137600000000     0.163600000000     0          
O        O      0.203900000000     0.434500000000     0.277800000000     0          
O        O      0.295950000000     0.365600000000     0.330050000000     0          
O        O      0.203950000000     0.306800000000     0.329350000000     0          
O        O      0.204250000000     0.237800000000     0.472550000000     0          
O        O      0.295950000000     0.110600000000     0.331800000000     0          
O        O      0.204250000000     0.033100000000     0.330950000000     0          
O        O      0.386450000000     0.034600000000     0.024150000000     0          
O        O      0.401550000000     0.063700000000     0.474700000000     0          
O        O      0.365900000000     0.079800000000     0.029850000000     0          
O        O      0.383550000000     0.163500000000     0.074000000000     0          
O        O      0.370650000000     0.117900000000     0.066000000000     0          
O        O      0.366700000000     0.208400000000     0.080550000000     0          
O        O      0.403100000000     0.192300000000     0.025450000000     0          
O        O      0.382300000000     0.291200000000     0.029400000000     0          
O        O      0.375000000000     0.250000000000     0.000000000000     0          
O        O      0.381650000000     0.252500000000     0.064550000000     0          
O        O      0.371450000000     0.373500000000     0.062900000000     0          
O        O      0.382800000000     0.418100000000     0.079750000000     0          
O        O      0.363350000000     0.463500000000     0.076750000000     0          
O        O      0.403550000000     0.504000000000     0.064300000000     0          
O        O      0.295800000000     0.034600000000     0.031700000000     0          
O        O      0.296300000000     0.110600000000     0.029750000000     0          
O        O      0.376450000000     0.120900000000     0.001400000000     0          
O        O      0.296000000000     0.238300000000     0.078100000000     0          
O        O      0.296050000000     0.307500000000     0.028350000000     0          
O        O      0.367800000000     0.336500000000     0.023450000000     0          
O        O      0.296200000000     0.364600000000     0.027100000000     0          
O        O      0.295850000000     0.432700000000     0.078300000000     0          
T        Si     0.401800000000     0.061000000000     0.014150000000     0          
T        Si     0.402100000000     0.189400000000     0.064850000000     0          
T        Si     0.398200000000     0.264000000000     0.030250000000     0          
T        Si     0.341500000000     0.018100000000     0.030150000000     0          
T        Si     0.348100000000     0.310800000000     0.013950000000     0          
T        Si     0.352450000000     0.363600000000     0.028250000000     0          
T        Si     0.347900000000     0.437600000000     0.064850000000     0          
T        Si     0.398400000000     0.391300000000     0.087200000000     0          
T        Si     0.405800000000     0.480700000000     0.086800000000     0          
T        Si     0.352200000000     0.107200000000     0.031650000000     0          
T        Si     0.350550000000     0.235100000000     0.086900000000     0          
T        Si     0.398850000000     0.137600000000     0.086400000000     0          
O        O      0.296100000000     0.565500000000     0.027800000000     0          
O        O      0.204050000000     0.634400000000     0.080050000000     0          
O        O      0.296050000000     0.693200000000     0.079350000000     0          
O        O      0.295750000000     0.762200000000     0.222550000000     0          
O        O      0.204050000000     0.889400000000     0.081800000000     0          
O        O      0.295750000000     0.966900000000     0.080950000000     0          
O        O      0.113550000000     0.965400000000     0.274150000000     0          
O        O      0.098450000000     0.936300000000     0.224700000000     0          
O        O      0.134100000000     0.920200000000     0.279850000000     0          
O        O      0.116450000000     0.836500000000     0.324000000000     0          
O        O      0.129350000000     0.882100000000     0.316000000000     0          
O        O      0.133300000000     0.791600000000     0.330550000000     0          
O        O      0.096900000000     0.807700000000     0.275450000000     0          
O        O      0.117700000000     0.708800000000     0.279400000000     0          
O        O      0.125000000000     0.750000000000     0.250000000000     0          
O        O      0.118350000000     0.747500000000     0.314550000000     0          
O        O      0.128550000000     0.626500000000     0.312900000000     0          
O        O      0.117200000000     0.581900000000     0.329750000000     0          
O        O      0.136650000000     0.536500000000     0.326750000000     0          
O        O      0.096450000000     0.496000000000     0.314300000000     0          
O        O      0.204200000000     0.965400000000     0.281700000000     0          
O        O      0.203700000000     0.889400000000     0.279750000000     0          
O        O      0.123550000000     0.879100000000     0.251400000000     0          
O        O      0.204000000000     0.761700000000     0.328100000000     0          
O        O      0.203950000000     0.692500000000     0.278350000000     0          
O        O      0.132200000000     0.663500000000     0.273450000000     0          
O        O      0.203800000000     0.635400000000     0.277100000000     0          
O        O      0.204150000000     0.567300000000     0.328300000000     0          
T        Si     0.098200000000     0.939000000000     0.264150000000     0          
T        Si     0.097900000000     0.810600000000     0.314850000000     0          
T        Si     0.101800000000     0.736000000000     0.280250000000     0          
T        Si     0.158500000000     0.981900000000     0.280150000000     0          
T        Si     0.151900000000     0.689200000000     0.263950000000     0          
T        Si     0.147550000000     0.636400000000     0.278250000000     0          
T        Si     0.152100000000     0.562400000000     0.314850000000     0          
T        Si     0.101600000000     0.608700000000     0.337200000000     0          
T        Si     0.094200000000     0.519300000000     0.336800000000     0          
T        Si     0.147800000000     0.892800000000     0.281650000000     0          
T        Si     0.149450000000     0.764900000000     0.336900000000     0          
T        Si     0.101150000000     0.862400000000     0.336400000000     0          
O        O      0.046100000000     0.934500000000     0.277800000000     0          
O        O      0.000000000000     0.900000000000     0.249200000000     0          
O        O      0.000000000000     0.904100000000     0.313850000000     0          
O        O      0.454050000000     0.865600000000     0.330050000000     0          
O        O      0.000000000000     0.889500000000     0.375000000000     0          
O        O      0.000000000000     0.783700000000     0.375000000000     0          
O        O      0.046050000000     0.806800000000     0.329350000000     0          
O        O      0.000000000000     0.768200000000     0.314150000000     0          
O        O      0.000000000000     0.772700000000     0.000350000000     0          
O        O      0.045750000000     0.737800000000     0.472550000000     0          
O        O      0.000000000000     0.571900000000     0.315850000000     0          
O        O      0.454050000000     0.610600000000     0.331800000000     0          
O        O      0.000000000000     0.608600000000     0.276200000000     0          
O        O      0.000000000000     0.535800000000     0.275000000000     0          
O        O      0.045750000000     0.533100000000     0.330950000000     0          
O        O      0.363550000000     0.534600000000     0.024150000000     0          
O        O      0.348450000000     0.563700000000     0.474700000000     0          
O        O      0.384100000000     0.579800000000     0.029850000000     0          
O        O      0.366450000000     0.663500000000     0.074000000000     0          
O        O      0.379350000000     0.617900000000     0.066000000000     0          
O        O      0.362600000000     0.634800000000     0.125000000000     0          
O        O      0.383300000000     0.708400000000     0.080550000000     0          
O        O      0.346900000000     0.692300000000     0.025450000000     0          
O        O      0.367700000000     0.791200000000     0.029400000000     0          
O        O      0.368350000000     0.752500000000     0.064550000000     0          
O        O      0.363650000000     0.885100000000     0.125000000000     0          
O        O      0.378550000000     0.873500000000     0.062900000000     0          
O        O      0.367200000000     0.918100000000     0.079750000000     0          
O        O      0.386650000000     0.963500000000     0.076750000000     0          
O        O      0.346450000000     0.004000000000     0.064300000000     0          
O        O      0.348900000000     0.987900000000     0.125000000000     0          
O        O      0.454200000000     0.534600000000     0.031700000000     0          
O        O      0.414200000000     0.500000000000     0.000000000000     0          
O        O      0.453700000000     0.610600000000     0.029750000000     0          
O        O      0.373550000000     0.620900000000     0.001400000000     0          
O        O      0.454000000000     0.738300000000     0.078100000000     0          
O        O      0.391150000000     0.741800000000     0.125000000000     0          
O        O      0.453950000000     0.807500000000     0.028350000000     0          
O        O      0.382200000000     0.836500000000     0.023450000000     0          
O        O      0.453800000000     0.864600000000     0.027100000000     0          
O        O      0.454150000000     0.932700000000     0.078300000000     0          
O        O      0.000000000000     0.572500000000     0.014300000000     0          
O        O      0.000000000000     0.760400000000     0.125000000000     0          
O        O      0.000000000000     0.777200000000     0.064850000000     0          
O        O      0.000000000000     0.893600000000     0.065000000000     0          
O        O      0.000000000000     0.910300000000     0.125000000000     0          
T        Si     0.348200000000     0.561000000000     0.014150000000     0          
T        Si     0.347900000000     0.689400000000     0.064850000000     0          
T        Si     0.351800000000     0.764000000000     0.030250000000     0          
T        Si     0.408500000000     0.518100000000     0.030150000000     0          
T        Si     0.401900000000     0.810800000000     0.013950000000     0          
T        Si     0.397550000000     0.863600000000     0.028250000000     0          
T        Si     0.402100000000     0.937600000000     0.064850000000     0          
T        Si     0.351600000000     0.891300000000     0.087200000000     0          
T        Si     0.344200000000     0.980700000000     0.086800000000     0          
T        Si     0.397800000000     0.607200000000     0.031650000000     0          
T        Si     0.399450000000     0.735100000000     0.086900000000     0          
T        Si     0.351150000000     0.637600000000     0.086400000000     0          
T        Si     0.000000000000     0.918300000000     0.279500000000     0          
T        Si     0.000000000000     0.754200000000     0.470350000000     0          
T        Si     0.000000000000     0.791200000000     0.219600000000     0          
T        Si     0.000000000000     0.880700000000     0.029750000000     0          
T        Si     0.000000000000     0.917400000000     0.086650000000     0          
T        Si     0.000000000000     0.791400000000     0.336850000000     0          
T        Si     0.000000000000     0.881200000000     0.337100000000     0          
T        Si     0.000000000000     0.600200000000     0.314100000000     0          
T        Si     0.000000000000     0.543600000000     0.313100000000     0          
T        Si     0.000000000000     0.544200000000     0.012900000000     0          
T        Si     0.000000000000     0.600700000000     0.011900000000     0          
T        Si     0.000000000000     0.753500000000     0.086550000000     0          
O        O      0.453900000000     0.065500000000     0.027800000000     0          
O        O      0.000000000000     0.100000000000     0.499200000000     0          
O        O      0.000000000000     0.095900000000     0.063850000000     0          
O        O      0.045950000000     0.134400000000     0.080050000000     0          
O        O      0.000000000000     0.110500000000     0.125000000000     0          
O        O      0.000000000000     0.216300000000     0.125000000000     0          
O        O      0.453950000000     0.193200000000     0.079350000000     0          
O        O      0.000000000000     0.231800000000     0.064150000000     0          
O        O      0.000000000000     0.227300000000     0.250350000000     0          
O        O      0.454250000000     0.262200000000     0.222550000000     0          
O        O      0.000000000000     0.428100000000     0.065850000000     0          
O        O      0.045950000000     0.389400000000     0.081800000000     0          
O        O      0.000000000000     0.391400000000     0.026200000000     0          
O        O      0.000000000000     0.464200000000     0.025000000000     0          
O        O      0.454250000000     0.466900000000     0.080950000000     0          
O        O      0.136450000000     0.465400000000     0.274150000000     0          
O        O      0.151550000000     0.436300000000     0.224700000000     0          
O        O      0.115900000000     0.420200000000     0.279850000000     0          
O        O      0.133550000000     0.336500000000     0.324000000000     0          
O        O      0.120650000000     0.382100000000     0.316000000000     0          
O        O      0.137400000000     0.365200000000     0.375000000000     0          
O        O      0.116700000000     0.291600000000     0.330550000000     0          
O        O      0.153100000000     0.307700000000     0.275450000000     0          
O        O      0.132300000000     0.208800000000     0.279400000000     0          
O        O      0.131650000000     0.247500000000     0.314550000000     0          
O        O      0.136350000000     0.114900000000     0.375000000000     0          
O        O      0.121450000000     0.126500000000     0.312900000000     0          
O        O      0.132800000000     0.081900000000     0.329750000000     0          
O        O      0.113350000000     0.036500000000     0.326750000000     0          
O        O      0.153550000000     0.996000000000     0.314300000000     0          
O        O      0.151100000000     0.012100000000     0.375000000000     0          
O        O      0.045800000000     0.465400000000     0.281700000000     0          
O        O      0.085800000000     0.500000000000     0.250000000000     0          
O        O      0.046300000000     0.389400000000     0.279750000000     0          
O        O      0.126450000000     0.379100000000     0.251400000000     0          
O        O      0.046000000000     0.261700000000     0.328100000000     0          
O        O      0.108850000000     0.258200000000     0.375000000000     0          
O        O      0.046050000000     0.192500000000     0.278350000000     0          
O        O      0.117800000000     0.163500000000     0.273450000000     0          
O        O      0.046200000000     0.135400000000     0.277100000000     0          
O        O      0.045850000000     0.067300000000     0.328300000000     0          
O        O      0.000000000000     0.427500000000     0.264300000000     0          
O        O      0.000000000000     0.239600000000     0.375000000000     0          
O        O      0.000000000000     0.222800000000     0.314850000000     0          
O        O      0.000000000000     0.106400000000     0.315000000000     0          
O        O      0.000000000000     0.089700000000     0.375000000000     0          
T        Si     0.151800000000     0.439000000000     0.264150000000     0          
T        Si     0.152100000000     0.310600000000     0.314850000000     0          
T        Si     0.148200000000     0.236000000000     0.280250000000     0          
T        Si     0.091500000000     0.481900000000     0.280150000000     0          
T        Si     0.098100000000     0.189200000000     0.263950000000     0          
T        Si     0.102450000000     0.136400000000     0.278250000000     0          
T        Si     0.097900000000     0.062400000000     0.314850000000     0          
T        Si     0.148400000000     0.108700000000     0.337200000000     0          
T        Si     0.155800000000     0.019300000000     0.336800000000     0          
T        Si     0.102200000000     0.392800000000     0.281650000000     0          
T        Si     0.100550000000     0.264900000000     0.336900000000     0          
T        Si     0.148850000000     0.362400000000     0.336400000000     0          
T        Si     0.000000000000     0.081700000000     0.029500000000     0          
T        Si     0.000000000000     0.245800000000     0.220350000000     0          
T        Si     0.000000000000     0.208800000000     0.469600000000     0          
T        Si     0.000000000000     0.119300000000     0.279750000000     0          
T        Si     0.000000000000     0.082600000000     0.336650000000     0          
T        Si     0.000000000000     0.208600000000     0.086850000000     0          
T        Si     0.000000000000     0.118800000000     0.087100000000     0          
T        Si     0.000000000000     0.399800000000     0.064100000000     0          
T        Si     0.000000000000     0.456400000000     0.063100000000     0          
T        Si     0.000000000000     0.455800000000     0.262900000000     0          
T        Si     0.000000000000     0.399300000000     0.261900000000     0          
T        Si     0.000000000000     0.246500000000     0.336550000000     0          
O        O      0.046100000000     0.065500000000     0.222200000000     0          
O        O      0.000000000000     0.100000000000     0.250800000000     0          
O        O      0.000000000000     0.095900000000     0.186150000000     0          
O        O      0.454050000000     0.134400000000     0.169950000000     0          
O        O      0.046050000000     0.193200000000     0.170650000000     0          
O        O      0.000000000000     0.231800000000     0.185850000000     0          
O        O      0.000000000000     0.227300000000     0.499650000000     0          
O        O      0.045750000000     0.262200000000     0.027450000000     0          
O        O      0.000000000000     0.428100000000     0.184150000000     0          
O        O      0.454050000000     0.389400000000     0.168200000000     0          
O        O      0.000000000000     0.391400000000     0.223800000000     0          
O        O      0.000000000000     0.464200000000     0.225000000000     0          
O        O      0.045750000000     0.466900000000     0.169050000000     0          
O        O      0.363550000000     0.465400000000     0.475850000000     0          
O        O      0.348450000000     0.436300000000     0.025300000000     0          
O        O      0.384100000000     0.420200000000     0.470150000000     0          
O        O      0.366450000000     0.336500000000     0.426000000000     0          
O        O      0.379350000000     0.382100000000     0.434000000000     0          
O        O      0.362600000000     0.365200000000     0.375000000000     0          
O        O      0.383300000000     0.291600000000     0.419450000000     0          
O        O      0.346900000000     0.307700000000     0.474550000000     0          
O        O      0.367700000000     0.208800000000     0.470600000000     0          
O        O      0.368350000000     0.247500000000     0.435450000000     0          
O        O      0.363650000000     0.114900000000     0.375000000000     0          
O        O      0.378550000000     0.126500000000     0.437100000000     0          
O        O      0.367200000000     0.081900000000     0.420250000000     0          
O        O      0.386650000000     0.036500000000     0.423250000000     0          
O        O      0.346450000000     0.996000000000     0.435700000000     0          
O        O      0.348900000000     0.012100000000     0.375000000000     0          
O        O      0.454200000000     0.465400000000     0.468300000000     0          
O        O      0.453700000000     0.389400000000     0.470250000000     0          
O        O      0.373550000000     0.379100000000     0.498600000000     0          
O        O      0.454000000000     0.261700000000     0.421900000000     0          
O        O      0.391150000000     0.258200000000     0.375000000000     0          
O        O      0.453950000000     0.192500000000     0.471650000000     0          
O        O      0.382200000000     0.163500000000     0.476550000000     0          
O        O      0.453800000000     0.135400000000     0.472900000000     0          
O        O      0.454150000000     0.067300000000     0.421700000000     0          
O        O      0.000000000000     0.427500000000     0.485700000000     0          
O        O      0.000000000000     0.222800000000     0.435150000000     0          
O        O      0.000000000000     0.106400000000     0.435000000000     0          
T        Si     0.348200000000     0.439000000000     0.485850000000     0          
T        Si     0.347900000000     0.310600000000     0.435150000000     0          
T        Si     0.351800000000     0.236000000000     0.469750000000     0          
T        Si     0.408500000000     0.481900000000     0.469850000000     0          
T        Si     0.401900000000     0.189200000000     0.486050000000     0          
T        Si     0.397550000000     0.136400000000     0.471750000000     0          
T        Si     0.402100000000     0.062400000000     0.435150000000     0          
T        Si     0.351600000000     0.108700000000     0.412800000000     0          
T        Si     0.344200000000     0.019300000000     0.413200000000     0          
T        Si     0.397800000000     0.392800000000     0.468350000000     0          
T        Si     0.399450000000     0.264900000000     0.413100000000     0          
T        Si     0.351150000000     0.362400000000     0.413600000000     0          
T        Si     0.000000000000     0.081700000000     0.220500000000     0          
T        Si     0.000000000000     0.245800000000     0.029650000000     0          
T        Si     0.000000000000     0.208800000000     0.280400000000     0          
T        Si     0.000000000000     0.119300000000     0.470250000000     0          
T        Si     0.000000000000     0.082600000000     0.413350000000     0          
T        Si     0.000000000000     0.208600000000     0.163150000000     0          
T        Si     0.000000000000     0.118800000000     0.162900000000     0          
T        Si     0.000000000000     0.399800000000     0.185900000000     0          
T        Si     0.000000000000     0.456400000000     0.186900000000     0          
T        Si     0.000000000000     0.455800000000     0.487100000000     0          
T        Si     0.000000000000     0.399300000000     0.488100000000     0          
T        Si     0.000000000000     0.246500000000     0.413450000000     0          
O        O      0.453900000000     0.934500000000     0.472200000000     0          
O        O      0.000000000000     0.900000000000     0.000800000000     0          
O        O      0.000000000000     0.904100000000     0.436150000000     0          
O        O      0.045950000000     0.865600000000     0.419950000000     0          
O        O      0.453950000000     0.806800000000     0.420650000000     0          
O        O      0.000000000000     0.768200000000     0.435850000000     0          
O        O      0.000000000000     0.772700000000     0.249650000000     0          
O        O      0.454250000000     0.737800000000     0.277450000000     0          
O        O      0.000000000000     0.571900000000     0.434150000000     0          
O        O      0.045950000000     0.610600000000     0.418200000000     0          
O        O      0.000000000000     0.608600000000     0.473800000000     0          
O        O      0.000000000000     0.535800000000     0.475000000000     0          
O        O      0.454250000000     0.533100000000     0.419050000000     0          
O        O      0.136450000000     0.534600000000     0.225850000000     0          
O        O      0.151550000000     0.563700000000     0.275300000000     0          
O        O      0.115900000000     0.579800000000     0.220150000000     0          
O        O      0.133550000000     0.663500000000     0.176000000000     0          
O        O      0.120650000000     0.617900000000     0.184000000000     0          
O        O      0.137400000000     0.634800000000     0.125000000000     0          
O        O      0.116700000000     0.708400000000     0.169450000000     0          
O        O      0.153100000000     0.692300000000     0.224550000000     0          
O        O      0.132300000000     0.791200000000     0.220600000000     0          
O        O      0.131650000000     0.752500000000     0.185450000000     0          
O        O      0.136350000000     0.885100000000     0.125000000000     0          
O        O      0.121450000000     0.873500000000     0.187100000000     0          
O        O      0.132800000000     0.918100000000     0.170250000000     0          
O        O      0.113350000000     0.963500000000     0.173250000000     0          
O        O      0.153550000000     0.004000000000     0.185700000000     0          
O        O      0.151100000000     0.987900000000     0.125000000000     0          
O        O      0.045800000000     0.534600000000     0.218300000000     0          
O        O      0.046300000000     0.610600000000     0.220250000000     0          
O        O      0.126450000000     0.620900000000     0.248600000000     0          
O        O      0.046000000000     0.738300000000     0.171900000000     0          
O        O      0.108850000000     0.741800000000     0.125000000000     0          
O        O      0.046050000000     0.807500000000     0.221650000000     0          
O        O      0.117800000000     0.836500000000     0.226550000000     0          
O        O      0.046200000000     0.864600000000     0.222900000000     0          
O        O      0.045850000000     0.932700000000     0.171700000000     0          
O        O      0.000000000000     0.572500000000     0.235700000000     0          
O        O      0.000000000000     0.777200000000     0.185150000000     0          
O        O      0.000000000000     0.893600000000     0.185000000000     0          
T        Si     0.151800000000     0.561000000000     0.235850000000     0          
T        Si     0.152100000000     0.689400000000     0.185150000000     0          
T        Si     0.148200000000     0.764000000000     0.219750000000     0          
T        Si     0.091500000000     0.518100000000     0.219850000000     0          
T        Si     0.098100000000     0.810800000000     0.236050000000     0          
T        Si     0.102450000000     0.863600000000     0.221750000000     0          
T        Si     0.097900000000     0.937600000000     0.185150000000     0          
T        Si     0.148400000000     0.891300000000     0.162800000000     0          
T        Si     0.155800000000     0.980700000000     0.163200000000     0          
T        Si     0.102200000000     0.607200000000     0.218350000000     0          
T        Si     0.100550000000     0.735100000000     0.163100000000     0          
T        Si     0.148850000000     0.637600000000     0.163600000000     0          
T        Si     0.000000000000     0.918300000000     0.470500000000     0          
T        Si     0.000000000000     0.754200000000     0.279650000000     0          
T        Si     0.000000000000     0.791200000000     0.030400000000     0          
T        Si     0.000000000000     0.880700000000     0.220250000000     0          
T        Si     0.000000000000     0.917400000000     0.163350000000     0          
T        Si     0.000000000000     0.791400000000     0.413150000000     0          
T        Si     0.000000000000     0.881200000000     0.412900000000     0          
T        Si     0.000000000000     0.600200000000     0.435900000000     0          
T        Si     0.000000000000     0.543600000000     0.436900000000     0          
T        Si     0.000000000000     0.544200000000     0.237100000000     0          
T        Si     0.000000000000     0.600700000000     0.238100000000     0          
T        Si     0.000000000000     0.753500000000     0.163450000000     0          
O        O      0.453900000000     0.065500000000     0.222200000000     0          
O        O      0.045950000000     0.134400000000     0.169950000000     0          
O        O      0.453950000000     0.193200000000     0.170650000000     0          
O        O      0.454250000000     0.262200000000     0.027450000000     0          
O        O      0.045950000000     0.389400000000     0.168200000000     0          
O        O      0.454250000000     0.466900000000     0.169050000000     0          
O        O      0.136450000000     0.465400000000     0.475850000000     0          
O        O      0.151550000000     0.436300000000     0.025300000000     0          
O        O      0.115900000000     0.420200000000     0.470150000000     0          
O        O      0.133550000000     0.336500000000     0.426000000000     0          
O        O      0.120650000000     0.382100000000     0.434000000000     0          
O        O      0.116700000000     0.291600000000     0.419450000000     0          
O        O      0.153100000000     0.307700000000     0.474550000000     0          
O        O      0.132300000000     0.208800000000     0.470600000000     0          
O        O      0.131650000000     0.247500000000     0.435450000000     0          
O        O      0.121450000000     0.126500000000     0.437100000000     0          
O        O      0.132800000000     0.081900000000     0.420250000000     0          
O        O      0.113350000000     0.036500000000     0.423250000000     0          
O        O      0.153550000000     0.996000000000     0.435700000000     0          
O        O      0.045800000000     0.465400000000     0.468300000000     0          
O        O      0.085800000000     0.500000000000     0.000000000000     0          
O        O      0.046300000000     0.389400000000     0.470250000000     0          
O        O      0.126450000000     0.379100000000     0.498600000000     0          
O        O      0.046000000000     0.261700000000     0.421900000000     0          
O        O      0.046050000000     0.192500000000     0.471650000000     0          
O        O      0.117800000000     0.163500000000     0.476550000000     0          
O        O      0.046200000000     0.135400000000     0.472900000000     0          
O        O      0.045850000000     0.067300000000     0.421700000000     0          
T        Si     0.151800000000     0.439000000000     0.485850000000     0          
T        Si     0.152100000000     0.310600000000     0.435150000000     0          
T        Si     0.148200000000     0.236000000000     0.469750000000     0          
T        Si     0.091500000000     0.481900000000     0.469850000000     0          
T        Si     0.098100000000     0.189200000000     0.486050000000     0          
T        Si     0.102450000000     0.136400000000     0.471750000000     0          
T        Si     0.097900000000     0.062400000000     0.435150000000     0          
T        Si     0.148400000000     0.108700000000     0.412800000000     0          
T        Si     0.155800000000     0.019300000000     0.413200000000     0          
T        Si     0.102200000000     0.392800000000     0.468350000000     0          
T        Si     0.100550000000     0.264900000000     0.413100000000     0          
T        Si     0.148850000000     0.362400000000     0.413600000000     0          
O        O      0.046100000000     0.934500000000     0.472200000000     0          
O        O      0.454050000000     0.865600000000     0.419950000000     0          
O        O      0.046050000000     0.806800000000     0.420650000000     0          
O        O      0.045750000000     0.737800000000     0.277450000000     0          
O        O      0.454050000000     0.610600000000     0.418200000000     0          
O        O      0.045750000000     0.533100000000     0.419050000000     0          
O        O      0.363550000000     0.534600000000     0.225850000000     0          
O        O      0.348450000000     0.563700000000     0.275300000000     0          
O        O      0.384100000000     0.579800000000     0.220150000000     0          
O        O      0.366450000000     0.663500000000     0.176000000000     0          
O        O      0.379350000000     0.617900000000     0.184000000000     0          
O        O      0.383300000000     0.708400000000     0.169450000000     0          
O        O      0.346900000000     0.692300000000     0.224550000000     0          
O        O      0.367700000000     0.791200000000     0.220600000000     0          
O        O      0.368350000000     0.752500000000     0.185450000000     0          
O        O      0.378550000000     0.873500000000     0.187100000000     0          
O        O      0.367200000000     0.918100000000     0.170250000000     0          
O        O      0.386650000000     0.963500000000     0.173250000000     0          
O        O      0.346450000000     0.004000000000     0.185700000000     0          
O        O      0.454200000000     0.534600000000     0.218300000000     0          
O        O      0.414200000000     0.500000000000     0.250000000000     0          
O        O      0.453700000000     0.610600000000     0.220250000000     0          
O        O      0.373550000000     0.620900000000     0.248600000000     0          
O        O      0.454000000000     0.738300000000     0.171900000000     0          
O        O      0.453950000000     0.807500000000     0.221650000000     0          
O        O      0.382200000000     0.836500000000     0.226550000000     0          
O        O      0.453800000000     0.864600000000     0.222900000000     0          
O        O      0.454150000000     0.932700000000     0.171700000000     0          
T        Si     0.348200000000     0.561000000000     0.235850000000     0          
T        Si     0.347900000000     0.689400000000     0.185150000000     0          
T        Si     0.351800000000     0.764000000000     0.219750000000     0          
T        Si     0.408500000000     0.518100000000     0.219850000000     0          
T        Si     0.401900000000     0.810800000000     0.236050000000     0          
T        Si     0.397550000000     0.863600000000     0.221750000000     0          
T        Si     0.402100000000     0.937600000000     0.185150000000     0          
T        Si     0.351600000000     0.891300000000     0.162800000000     0          
T        Si     0.344200000000     0.980700000000     0.163200000000     0          
T        Si     0.397800000000     0.607200000000     0.218350000000     0          
T        Si     0.399450000000     0.735100000000     0.163100000000     0          
T        Si     0.351150000000     0.637600000000     0.163600000000     0          
O        O      0.453900000000     0.934500000000     0.277800000000     0          
O        O      0.045950000000     0.865600000000     0.330050000000     0          
O        O      0.453950000000     0.806800000000     0.329350000000     0          
O        O      0.454250000000     0.737800000000     0.472550000000     0          
O        O      0.045950000000     0.610600000000     0.331800000000     0          
O        O      0.454250000000     0.533100000000     0.330950000000     0          
O        O      0.136450000000     0.534600000000     0.024150000000     0          
O        O      0.151550000000     0.563700000000     0.474700000000     0          
O        O      0.115900000000     0.579800000000     0.029850000000     0          
O        O      0.133550000000     0.663500000000     0.074000000000     0          
O        O      0.120650000000     0.617900000000     0.066000000000     0          
O        O      0.116700000000     0.708400000000     0.080550000000     0          
O        O      0.153100000000     0.692300000000     0.025450000000     0          
O        O      0.132300000000     0.791200000000     0.029400000000     0          
O        O      0.131650000000     0.752500000000     0.064550000000     0          
O        O      0.121450000000     0.873500000000     0.062900000000     0          
O        O      0.132800000000     0.918100000000     0.079750000000     0          
O        O      0.113350000000     0.963500000000     0.076750000000     0          
O        O      0.153550000000     0.004000000000     0.064300000000     0          
O        O      0.045800000000     0.534600000000     0.031700000000     0          
O        O      0.046300000000     0.610600000000     0.029750000000     0          
O        O      0.126450000000     0.620900000000     0.001400000000     0          
O        O      0.046000000000     0.738300000000     0.078100000000     0          
O        O      0.046050000000     0.807500000000     0.028350000000     0          
O        O      0.117800000000     0.836500000000     0.023450000000     0          
O        O      0.046200000000     0.864600000000     0.027100000000     0          
O        O      0.045850000000     0.932700000000     0.078300000000     0          
T        Si     0.151800000000     0.561000000000     0.014150000000     0          
T        Si     0.152100000000     0.689400000000     0.064850000000     0          
T        Si     0.148200000000     0.764000000000     0.030250000000     0          
T        Si     0.091500000000     0.518100000000     0.030150000000     0          
T        Si     0.098100000000     0.810800000000     0.013950000000     0          
T        Si     0.102450000000     0.863600000000     0.028250000000     0          
T        Si     0.097900000000     0.937600000000     0.064850000000     0          
T        Si     0.148400000000     0.891300000000     0.087200000000     0          
T        Si     0.155800000000     0.980700000000     0.086800000000     0          
T        Si     0.102200000000     0.607200000000     0.031650000000     0          
T        Si     0.100550000000     0.735100000000     0.086900000000     0          
T        Si     0.148850000000     0.637600000000     0.086400000000     0          
O        O      0.046100000000     0.065500000000     0.027800000000     0          
O        O      0.454050000000     0.134400000000     0.080050000000     0          
O        O      0.046050000000     0.193200000000     0.079350000000     0          
O        O      0.045750000000     0.262200000000     0.222550000000     0          
O        O      0.454050000000     0.389400000000     0.081800000000     0          
O        O      0.045750000000     0.466900000000     0.080950000000     0          
O        O      0.363550000000     0.465400000000     0.274150000000     0          
O        O      0.348450000000     0.436300000000     0.224700000000     0          
O        O      0.384100000000     0.420200000000     0.279850000000     0          
O        O      0.366450000000     0.336500000000     0.324000000000     0          
O        O      0.379350000000     0.382100000000     0.316000000000     0          
O        O      0.383300000000     0.291600000000     0.330550000000     0          
O        O      0.346900000000     0.307700000000     0.275450000000     0          
O        O      0.367700000000     0.208800000000     0.279400000000     0          
O        O      0.368350000000     0.247500000000     0.314550000000     0          
O        O      0.378550000000     0.126500000000     0.312900000000     0          
O        O      0.367200000000     0.081900000000     0.329750000000     0          
O        O      0.386650000000     0.036500000000     0.326750000000     0          
O        O      0.346450000000     0.996000000000     0.314300000000     0          
O        O      0.454200000000     0.465400000000     0.281700000000     0          
O        O      0.453700000000     0.389400000000     0.279750000000     0          
O        O      0.373550000000     0.379100000000     0.251400000000     0          
O        O      0.454000000000     0.261700000000     0.328100000000     0          
O        O      0.453950000000     0.192500000000     0.278350000000     0          
O        O      0.382200000000     0.163500000000     0.273450000000     0          
O        O      0.453800000000     0.135400000000     0.277100000000     0          
O        O      0.454150000000     0.067300000000     0.328300000000     0          
T        Si     0.348200000000     0.439000000000     0.264150000000     0          
T        Si     0.347900000000     0.310600000000     0.314850000000     0          
T        Si     0.351800000000     0.236000000000     0.280250000000     0          
T        Si     0.408500000000     0.481900000000     0.280150000000     0          
T        Si     0.401900000000     0.189200000000     0.263950000000     0          
T        Si     0.397550000000     0.136400000000     0.278250000000     0          
T        Si     0.402100000000     0.062400000000     0.314850000000     0          
T        Si     0.351600000000     0.108700000000     0.337200000000     0          
T        Si     0.344200000000     0.019300000000     0.336800000000     0          
T        Si     0.397800000000     0.392800000000     0.281650000000     0          
T        Si     0.399450000000     0.264900000000     0.336900000000     0          
T        Si     0.351150000000     0.362400000000     0.336400000000     0          
O        O      0.296100000000     0.434500000000     0.777800000000     0          
O        O      0.250000000000     0.400000000000     0.749200000000     0          
O        O      0.250000000000     0.404100000000     0.813850000000     0          
O        O      0.204050000000     0.365600000000     0.830050000000     0          
O        O      0.250000000000     0.389500000000     0.875000000000     0          
O        O      0.250000000000     0.283700000000     0.875000000000     0          
O        O      0.296050000000     0.306800000000     0.829350000000     0          
O        O      0.250000000000     0.268200000000     0.814150000000     0          
O        O      0.250000000000     0.272700000000     0.500350000000     0          
O        O      0.295750000000     0.237800000000     0.972550000000     0          
O        O      0.250000000000     0.071900000000     0.815850000000     0          
O        O      0.204050000000     0.110600000000     0.831800000000     0          
O        O      0.250000000000     0.108600000000     0.776200000000     0          
O        O      0.250000000000     0.035800000000     0.775000000000     0          
O        O      0.295750000000     0.033100000000     0.830950000000     0          
O        O      0.113550000000     0.034600000000     0.524150000000     0          
O        O      0.098450000000     0.063700000000     0.974700000000     0          
O        O      0.134100000000     0.079800000000     0.529850000000     0          
O        O      0.116450000000     0.163500000000     0.574000000000     0          
O        O      0.129350000000     0.117900000000     0.566000000000     0          
O        O      0.112600000000     0.134800000000     0.625000000000     0          
O        O      0.133300000000     0.208400000000     0.580550000000     0          
O        O      0.096900000000     0.192300000000     0.525450000000     0          
O        O      0.117700000000     0.291200000000     0.529400000000     0          
O        O      0.125000000000     0.250000000000     0.500000000000     0          
O        O      0.118350000000     0.252500000000     0.564550000000     0          
O        O      0.113650000000     0.385100000000     0.625000000000     0          
O        O      0.128550000000     0.373500000000     0.562900000000     0          
O        O      0.117200000000     0.418100000000     0.579750000000     0          
O        O      0.136650000000     0.463500000000     0.576750000000     0          
O        O      0.096450000000     0.504000000000     0.564300000000     0          
O        O      0.098900000000     0.487900000000     0.625000000000     0          
O        O      0.204200000000     0.034600000000     0.531700000000     0          
O        O      0.164200000000     0.000000000000     0.500000000000     0          
O        O      0.203700000000     0.110600000000     0.529750000000     0          
O        O      0.123550000000     0.120900000000     0.501400000000     0          
O        O      0.204000000000     0.238300000000     0.578100000000     0          
O        O      0.141150000000     0.241800000000     0.625000000000     0          
O        O      0.203950000000     0.307500000000     0.528350000000     0          
O        O      0.132200000000     0.336500000000     0.523450000000     0          
O        O      0.203800000000     0.364600000000     0.527100000000     0          
O        O      0.204150000000     0.432700000000     0.578300000000     0          
O        O      0.250000000000     0.072500000000     0.514300000000     0          
O        O      0.250000000000     0.260400000000     0.625000000000     0          
O        O      0.250000000000     0.277200000000     0.564850000000     0          
O        O      0.250000000000     0.393600000000     0.565000000000     0          
O        O      0.250000000000     0.410300000000     0.625000000000     0          
T        Si     0.098200000000     0.061000000000     0.514150000000     0          
T        Si     0.097900000000     0.189400000000     0.564850000000     0          
T        Si     0.101800000000     0.264000000000     0.530250000000     0          
T        Si     0.158500000000     0.018100000000     0.530150000000     0          
T        Si     0.151900000000     0.310800000000     0.513950000000     0          
T        Si     0.147550000000     0.363600000000     0.528250000000     0          
T        Si     0.152100000000     0.437600000000     0.564850000000     0          
T        Si     0.101600000000     0.391300000000     0.587200000000     0          
T        Si     0.094200000000     0.480700000000     0.586800000000     0          
T        Si     0.147800000000     0.107200000000     0.531650000000     0          
T        Si     0.149450000000     0.235100000000     0.586900000000     0          
T        Si     0.101150000000     0.137600000000     0.586400000000     0          
T        Si     0.250000000000     0.418300000000     0.779500000000     0          
T        Si     0.250000000000     0.254200000000     0.970350000000     0          
T        Si     0.250000000000     0.291200000000     0.719600000000     0          
T        Si     0.250000000000     0.380700000000     0.529750000000     0          
T        Si     0.250000000000     0.417400000000     0.586650000000     0          
T        Si     0.250000000000     0.291400000000     0.836850000000     0          
T        Si     0.250000000000     0.381200000000     0.837100000000     0          
T        Si     0.250000000000     0.100200000000     0.814100000000     0          
T        Si     0.250000000000     0.043600000000     0.813100000000     0          
T        Si     0.250000000000     0.044200000000     0.512900000000     0          
T        Si     0.250000000000     0.100700000000     0.511900000000     0          
T        Si     0.250000000000     0.253500000000     0.586550000000     0          
O        O      0.203900000000     0.565500000000     0.527800000000     0          
O        O      0.250000000000     0.600000000000     0.999200000000     0          
O        O      0.250000000000     0.595900000000     0.563850000000     0          
O        O      0.295950000000     0.634400000000     0.580050000000     0          
O        O      0.250000000000     0.610500000000     0.625000000000     0          
O        O      0.250000000000     0.716300000000     0.625000000000     0          
O        O      0.203950000000     0.693200000000     0.579350000000     0          
O        O      0.250000000000     0.731800000000     0.564150000000     0          
O        O      0.250000000000     0.727300000000     0.750350000000     0          
O        O      0.204250000000     0.762200000000     0.722550000000     0          
O        O      0.250000000000     0.928100000000     0.565850000000     0          
O        O      0.295950000000     0.889400000000     0.581800000000     0          
O        O      0.250000000000     0.891400000000     0.526200000000     0          
O        O      0.250000000000     0.964200000000     0.525000000000     0          
O        O      0.204250000000     0.966900000000     0.580950000000     0          
O        O      0.386450000000     0.965400000000     0.774150000000     0          
O        O      0.401550000000     0.936300000000     0.724700000000     0          
O        O      0.365900000000     0.920200000000     0.779850000000     0          
O        O      0.383550000000     0.836500000000     0.824000000000     0          
O        O      0.370650000000     0.882100000000     0.816000000000     0          
O        O      0.387400000000     0.865200000000     0.875000000000     0          
O        O      0.366700000000     0.791600000000     0.830550000000     0          
O        O      0.403100000000     0.807700000000     0.775450000000     0          
O        O      0.382300000000     0.708800000000     0.779400000000     0          
O        O      0.375000000000     0.750000000000     0.750000000000     0          
O        O      0.381650000000     0.747500000000     0.814550000000     0          
O        O      0.386350000000     0.614900000000     0.875000000000     0          
O        O      0.371450000000     0.626500000000     0.812900000000     0          
O        O      0.382800000000     0.581900000000     0.829750000000     0          
O        O      0.363350000000     0.536500000000     0.826750000000     0          
O        O      0.403550000000     0.496000000000     0.814300000000     0          
O        O      0.401100000000     0.512100000000     0.875000000000     0          
O        O      0.295800000000     0.965400000000     0.781700000000     0          
O        O      0.335800000000     0.000000000000     0.750000000000     0          
O        O      0.296300000000     0.889400000000     0.779750000000     0          
O        O      0.376450000000     0.879100000000     0.751400000000     0          
O        O      0.296000000000     0.761700000000     0.828100000000     0          
O        O      0.358850000000     0.758200000000     0.875000000000     0          
O        O      0.296050000000     0.692500000000     0.778350000000     0          
O        O      0.367800000000     0.663500000000     0.773450000000     0          
O        O      0.296200000000     0.635400000000     0.777100000000     0          
O        O      0.295850000000     0.567300000000     0.828300000000     0          
O        O      0.250000000000     0.927500000000     0.764300000000     0          
O        O      0.250000000000     0.739600000000     0.875000000000     0          
O        O      0.250000000000     0.722800000000     0.814850000000     0          
O        O      0.250000000000     0.606400000000     0.815000000000     0          
O        O      0.250000000000     0.589700000000     0.875000000000     0          
T        Si     0.401800000000     0.939000000000     0.764150000000     0          
T        Si     0.402100000000     0.810600000000     0.814850000000     0          
T        Si     0.398200000000     0.736000000000     0.780250000000     0          
T        Si     0.341500000000     0.981900000000     0.780150000000     0          
T        Si     0.348100000000     0.689200000000     0.763950000000     0          
T        Si     0.352450000000     0.636400000000     0.778250000000     0          
T        Si     0.347900000000     0.562400000000     0.814850000000     0          
T        Si     0.398400000000     0.608700000000     0.837200000000     0          
T        Si     0.405800000000     0.519300000000     0.836800000000     0          
T        Si     0.352200000000     0.892800000000     0.781650000000     0          
T        Si     0.350550000000     0.764900000000     0.836900000000     0          
T        Si     0.398850000000     0.862400000000     0.836400000000     0          
T        Si     0.250000000000     0.581700000000     0.529500000000     0          
T        Si     0.250000000000     0.745800000000     0.720350000000     0          
T        Si     0.250000000000     0.708800000000     0.969600000000     0          
T        Si     0.250000000000     0.619300000000     0.779750000000     0          
T        Si     0.250000000000     0.582600000000     0.836650000000     0          
T        Si     0.250000000000     0.708600000000     0.586850000000     0          
T        Si     0.250000000000     0.618800000000     0.587100000000     0          
T        Si     0.250000000000     0.899800000000     0.564100000000     0          
T        Si     0.250000000000     0.956400000000     0.563100000000     0          
T        Si     0.250000000000     0.955800000000     0.762900000000     0          
T        Si     0.250000000000     0.899300000000     0.761900000000     0          
T        Si     0.250000000000     0.746500000000     0.836550000000     0          
O        O      0.296100000000     0.565500000000     0.722200000000     0          
O        O      0.250000000000     0.600000000000     0.750800000000     0          
O        O      0.250000000000     0.595900000000     0.686150000000     0          
O        O      0.204050000000     0.634400000000     0.669950000000     0          
O        O      0.296050000000     0.693200000000     0.670650000000     0          
O        O      0.250000000000     0.731800000000     0.685850000000     0          
O        O      0.250000000000     0.727300000000     0.999650000000     0          
O        O      0.295750000000     0.762200000000     0.527450000000     0          
O        O      0.250000000000     0.928100000000     0.684150000000     0          
O        O      0.204050000000     0.889400000000     0.668200000000     0          
O        O      0.250000000000     0.891400000000     0.723800000000     0          
O        O      0.250000000000     0.964200000000     0.725000000000     0          
O        O      0.295750000000     0.966900000000     0.669050000000     0          
O        O      0.113550000000     0.965400000000     0.975850000000     0          
O        O      0.098450000000     0.936300000000     0.525300000000     0          
O        O      0.134100000000     0.920200000000     0.970150000000     0          
O        O      0.116450000000     0.836500000000     0.926000000000     0          
O        O      0.129350000000     0.882100000000     0.934000000000     0          
O        O      0.112600000000     0.865200000000     0.875000000000     0          
O        O      0.133300000000     0.791600000000     0.919450000000     0          
O        O      0.096900000000     0.807700000000     0.974550000000     0          
O        O      0.117700000000     0.708800000000     0.970600000000     0          
O        O      0.125000000000     0.750000000000     0.500000000000     0          
O        O      0.118350000000     0.747500000000     0.935450000000     0          
O        O      0.113650000000     0.614900000000     0.875000000000     0          
O        O      0.128550000000     0.626500000000     0.937100000000     0          
O        O      0.117200000000     0.581900000000     0.920250000000     0          
O        O      0.136650000000     0.536500000000     0.923250000000     0          
O        O      0.096450000000     0.496000000000     0.935700000000     0          
O        O      0.098900000000     0.512100000000     0.875000000000     0          
O        O      0.204200000000     0.965400000000     0.968300000000     0          
O        O      0.203700000000     0.889400000000     0.970250000000     0          
O        O      0.123550000000     0.879100000000     0.998600000000     0          
O        O      0.204000000000     0.761700000000     0.921900000000     0          
O        O      0.141150000000     0.758200000000     0.875000000000     0          
O        O      0.203950000000     0.692500000000     0.971650000000     0          
O        O      0.132200000000     0.663500000000     0.976550000000     0          
O        O      0.203800000000     0.635400000000     0.972900000000     0          
O        O      0.204150000000     0.567300000000     0.921700000000     0          
O        O      0.250000000000     0.927500000000     0.985700000000     0          
O        O      0.250000000000     0.722800000000     0.935150000000     0          
O        O      0.250000000000     0.606400000000     0.935000000000     0          
T        Si     0.098200000000     0.939000000000     0.985850000000     0          
T        Si     0.097900000000     0.810600000000     0.935150000000     0          
T        Si     0.101800000000     0.736000000000     0.969750000000     0          
T        Si     0.158500000000     0.981900000000     0.969850000000     0          
T        Si     0.151900000000     0.689200000000     0.986050000000     0          
T        Si     0.147550000000     0.636400000000     0.971750000000     0          
T        Si     0.152100000000     0.562400000000     0.935150000000     0          
T        Si     0.101600000000     0.608700000000     0.912800000000     0          
T        Si     0.094200000000     0.519300000000     0.913200000000     0          
T        Si     0.147800000000     0.892800000000     0.968350000000     0          
T        Si     0.149450000000     0.764900000000     0.913100000000     0          
T        Si     0.101150000000     0.862400000000     0.913600000000     0          
T        Si     0.250000000000     0.581700000000     0.720500000000     0          
T        Si     0.250000000000     0.745800000000     0.529650000000     0          
T        Si     0.250000000000     0.708800000000     0.780400000000     0          
T        Si     0.250000000000     0.619300000000     0.970250000000     0          
T        Si     0.250000000000     0.582600000000     0.913350000000     0          
T        Si     0.250000000000     0.708600000000     0.663150000000     0          
T        Si     0.250000000000     0.618800000000     0.662900000000     0          
T        Si     0.250000000000     0.899800000000     0.685900000000     0          
T        Si     0.250000000000     0.956400000000     0.686900000000     0          
T        Si     0.250000000000     0.955800000000     0.987100000000     0          
T        Si     0.250000000000     0.899300000000     0.988100000000     0          
T        Si     0.250000000000     0.746500000000     0.913450000000     0          
O        O      0.203900000000     0.434500000000     0.972200000000     0          
O        O      0.250000000000     0.400000000000     0.500800000000     0          
O        O      0.250000000000     0.404100000000     0.936150000000     0          
O        O      0.295950000000     0.365600000000     0.919950000000     0          
O        O      0.203950000000     0.306800000000     0.920650000000     0          
O        O      0.250000000000     0.268200000000     0.935850000000     0          
O        O      0.250000000000     0.272700000000     0.749650000000     0          
O        O      0.204250000000     0.237800000000     0.777450000000     0          
O        O      0.250000000000     0.071900000000     0.934150000000     0          
O        O      0.295950000000     0.110600000000     0.918200000000     0          
O        O      0.250000000000     0.108600000000     0.973800000000     0          
O        O      0.250000000000     0.035800000000     0.975000000000     0          
O        O      0.204250000000     0.033100000000     0.919050000000     0          
O        O      0.386450000000     0.034600000000     0.725850000000     0          
O        O      0.401550000000     0.063700000000     0.775300000000     0          
O        O      0.365900000000     0.079800000000     0.720150000000     0          
O        O      0.383550000000     0.163500000000     0.676000000000     0          
O        O      0.370650000000     0.117900000000     0.684000000000     0          
O        O      0.387400000000     0.134800000000     0.625000000000     0          
O        O      0.366700000000     0.208400000000     0.669450000000     0          
O        O      0.403100000000     0.192300000000     0.724550000000     0          
O        O      0.382300000000     0.291200000000     0.720600000000     0          
O        O      0.375000000000     0.250000000000     0.750000000000     0          
O        O      0.381650000000     0.252500000000     0.685450000000     0          
O        O      0.386350000000     0.385100000000     0.625000000000     0          
O        O      0.371450000000     0.373500000000     0.687100000000     0          
O        O      0.382800000000     0.418100000000     0.670250000000     0          
O        O      0.363350000000     0.463500000000     0.673250000000     0          
O        O      0.403550000000     0.504000000000     0.685700000000     0          
O        O      0.401100000000     0.487900000000     0.625000000000     0          
O        O      0.295800000000     0.034600000000     0.718300000000     0          
O        O      0.296300000000     0.110600000000     0.720250000000     0          
O        O      0.376450000000     0.120900000000     0.748600000000     0          
O        O      0.296000000000     0.238300000000     0.671900000000     0          
O        O      0.358850000000     0.241800000000     0.625000000000     0          
O        O      0.296050000000     0.307500000000     0.721650000000     0          
O        O      0.367800000000     0.336500000000     0.726550000000     0          
O        O      0.296200000000     0.364600000000     0.722900000000     0          
O        O      0.295850000000     0.432700000000     0.671700000000     0          
O        O      0.250000000000     0.072500000000     0.735700000000     0          
O        O      0.250000000000     0.277200000000     0.685150000000     0          
O        O      0.250000000000     0.393600000000     0.685000000000     0          
T        Si     0.401800000000     0.061000000000     0.735850000000     0          
T        Si     0.402100000000     0.189400000000     0.685150000000     0          
T        Si     0.398200000000     0.264000000000     0.719750000000     0          
T        Si     0.341500000000     0.018100000000     0.719850000000     0          
T        Si     0.348100000000     0.310800000000     0.736050000000     0          
T        Si     0.352450000000     0.363600000000     0.721750000000     0          
T        Si     0.347900000000     0.437600000000     0.685150000000     0          
T        Si     0.398400000000     0.391300000000     0.662800000000     0          
T        Si     0.405800000000     0.480700000000     0.663200000000     0          
T        Si     0.352200000000     0.107200000000     0.718350000000     0          
T        Si     0.350550000000     0.235100000000     0.663100000000     0          
T        Si     0.398850000000     0.137600000000     0.663600000000     0          
T        Si     0.250000000000     0.418300000000     0.970500000000     0          
T        Si     0.250000000000     0.254200000000     0.779650000000     0          
T        Si     0.250000000000     0.291200000000     0.530400000000     0          
T        Si     0.250000000000     0.380700000000     0.720250000000     0          
T        Si     0.250000000000     0.417400000000     0.663350000000     0          
T        Si     0.250000000000     0.291400000000     0.913150000000     0          
T        Si     0.250000000000     0.381200000000     0.912900000000     0          
T        Si     0.250000000000     0.100200000000     0.935900000000     0          
T        Si     0.250000000000     0.043600000000     0.936900000000     0          
T        Si     0.250000000000     0.044200000000     0.737100000000     0          
T        Si     0.250000000000     0.100700000000     0.738100000000     0          
T        Si     0.250000000000     0.253500000000     0.663450000000     0          
O        O      0.203900000000     0.565500000000     0.722200000000     0          
O        O      0.295950000000     0.634400000000     0.669950000000     0          
O        O      0.203950000000     0.693200000000     0.670650000000     0          
O        O      0.204250000000     0.762200000000     0.527450000000     0          
O        O      0.295950000000     0.889400000000     0.668200000000     0          
O        O      0.204250000000     0.966900000000     0.669050000000     0          
O        O      0.386450000000     0.965400000000     0.975850000000     0          
O        O      0.401550000000     0.936300000000     0.525300000000     0          
O        O      0.365900000000     0.920200000000     0.970150000000     0          
O        O      0.383550000000     0.836500000000     0.926000000000     0          
O        O      0.370650000000     0.882100000000     0.934000000000     0          
O        O      0.366700000000     0.791600000000     0.919450000000     0          
O        O      0.403100000000     0.807700000000     0.974550000000     0          
O        O      0.382300000000     0.708800000000     0.970600000000     0          
O        O      0.375000000000     0.750000000000     0.500000000000     0          
O        O      0.381650000000     0.747500000000     0.935450000000     0          
O        O      0.371450000000     0.626500000000     0.937100000000     0          
O        O      0.382800000000     0.581900000000     0.920250000000     0          
O        O      0.363350000000     0.536500000000     0.923250000000     0          
O        O      0.403550000000     0.496000000000     0.935700000000     0          
O        O      0.295800000000     0.965400000000     0.968300000000     0          
O        O      0.335800000000     0.000000000000     0.500000000000     0          
O        O      0.296300000000     0.889400000000     0.970250000000     0          
O        O      0.376450000000     0.879100000000     0.998600000000     0          
O        O      0.296000000000     0.761700000000     0.921900000000     0          
O        O      0.296050000000     0.692500000000     0.971650000000     0          
O        O      0.367800000000     0.663500000000     0.976550000000     0          
O        O      0.296200000000     0.635400000000     0.972900000000     0          
O        O      0.295850000000     0.567300000000     0.921700000000     0          
T        Si     0.401800000000     0.939000000000     0.985850000000     0          
T        Si     0.402100000000     0.810600000000     0.935150000000     0          
T        Si     0.398200000000     0.736000000000     0.969750000000     0          
T        Si     0.341500000000     0.981900000000     0.969850000000     0          
T        Si     0.348100000000     0.689200000000     0.986050000000     0          
T        Si     0.352450000000     0.636400000000     0.971750000000     0          
T        Si     0.347900000000     0.562400000000     0.935150000000     0          
T        Si     0.398400000000     0.608700000000     0.912800000000     0          
T        Si     0.405800000000     0.519300000000     0.913200000000     0          
T        Si     0.352200000000     0.892800000000     0.968350000000     0          
T        Si     0.350550000000     0.764900000000     0.913100000000     0          
T        Si     0.398850000000     0.862400000000     0.913600000000     0          
O        O      0.296100000000     0.434500000000     0.972200000000     0          
O        O      0.204050000000     0.365600000000     0.919950000000     0          
O        O      0.296050000000     0.306800000000     0.920650000000     0          
O        O      0.295750000000     0.237800000000     0.777450000000     0          
O        O      0.204050000000     0.110600000000     0.918200000000     0          
O        O      0.295750000000     0.033100000000     0.919050000000     0          
O        O      0.113550000000     0.034600000000     0.725850000000     0          
O        O      0.098450000000     0.063700000000     0.775300000000     0          
O        O      0.134100000000     0.079800000000     0.720150000000     0          
O        O      0.116450000000     0.163500000000     0.676000000000     0          
O        O      0.129350000000     0.117900000000     0.684000000000     0          
O        O      0.133300000000     0.208400000000     0.669450000000     0          
O        O      0.096900000000     0.192300000000     0.724550000000     0          
O        O      0.117700000000     0.291200000000     0.720600000000     0          
O        O      0.125000000000     0.250000000000     0.750000000000     0          
O        O      0.118350000000     0.252500000000     0.685450000000     0          
O        O      0.128550000000     0.373500000000     0.687100000000     0          
O        O      0.117200000000     0.418100000000     0.670250000000     0          
O        O      0.136650000000     0.463500000000     0.673250000000     0          
O        O      0.096450000000     0.504000000000     0.685700000000     0          
O        O      0.204200000000     0.034600000000     0.718300000000     0          
O        O      0.164200000000     0.000000000000     0.750000000000     0          
O        O      0.203700000000     0.110600000000     0.720250000000     0          
O        O      0.123550000000     0.120900000000     0.748600000000     0          
O        O      0.204000000000     0.238300000000     0.671900000000     0          
O        O      0.203950000000     0.307500000000     0.721650000000     0          
O        O      0.132200000000     0.336500000000     0.726550000000     0          
O        O      0.203800000000     0.364600000000     0.722900000000     0          
O        O      0.204150000000     0.432700000000     0.671700000000     0          
T        Si     0.098200000000     0.061000000000     0.735850000000     0          
T        Si     0.097900000000     0.189400000000     0.685150000000     0          
T        Si     0.101800000000     0.264000000000     0.719750000000     0          
T        Si     0.158500000000     0.018100000000     0.719850000000     0          
T        Si     0.151900000000     0.310800000000     0.736050000000     0          
T        Si     0.147550000000     0.363600000000     0.721750000000     0          
T        Si     0.152100000000     0.437600000000     0.685150000000     0          
T        Si     0.101600000000     0.391300000000     0.662800000000     0          
T        Si     0.094200000000     0.480700000000     0.663200000000     0          
T        Si     0.147800000000     0.107200000000     0.718350000000     0          
T        Si     0.149450000000     0.235100000000     0.663100000000     0          
T        Si     0.101150000000     0.137600000000     0.663600000000     0          
O        O      0.203900000000     0.434500000000     0.777800000000     0          
O        O      0.295950000000     0.365600000000     0.830050000000     0          
O        O      0.203950000000     0.306800000000     0.829350000000     0          
O        O      0.204250000000     0.237800000000     0.972550000000     0          
O        O      0.295950000000     0.110600000000     0.831800000000     0          
O        O      0.204250000000     0.033100000000     0.830950000000     0          
O        O      0.386450000000     0.034600000000     0.524150000000     0          
O        O      0.401550000000     0.063700000000     0.974700000000     0          
O        O      0.365900000000     0.079800000000     0.529850000000     0          
O        O      0.383550000000     0.163500000000     0.574000000000     0          
O        O      0.370650000000     0.117900000000     0.566000000000     0          
O        O      0.366700000000     0.208400000000     0.580550000000     0          
O        O      0.403100000000     0.192300000000     0.525450000000     0          
O        O      0.382300000000     0.291200000000     0.529400000000     0          
O        O      0.375000000000     0.250000000000     0.500000000000     0          
O        O      0.381650000000     0.252500000000     0.564550000000     0          
O        O      0.371450000000     0.373500000000     0.562900000000     0          
O        O      0.382800000000     0.418100000000     0.579750000000     0          
O        O      0.363350000000     0.463500000000     0.576750000000     0          
O        O      0.403550000000     0.504000000000     0.564300000000     0          
O        O      0.295800000000     0.034600000000     0.531700000000     0          
O        O      0.296300000000     0.110600000000     0.529750000000     0          
O        O      0.376450000000     0.120900000000     0.501400000000     0          
O        O      0.296000000000     0.238300000000     0.578100000000     0          
O        O      0.296050000000     0.307500000000     0.528350000000     0          
O        O      0.367800000000     0.336500000000     0.523450000000     0          
O        O      0.296200000000     0.364600000000     0.527100000000     0          
O        O      0.295850000000     0.432700000000     0.578300000000     0          
T        Si     0.401800000000     0.061000000000     0.514150000000     0          
T        Si     0.402100000000     0.189400000000     0.564850000000     0          
T        Si     0.398200000000     0.264000000000     0.530250000000     0          
T        Si     0.341500000000     0.018100000000     0.530150000000     0          
T        Si     0.348100000000     0.310800000000     0.513950000000     0          
T        Si     0.352450000000     0.363600000000     0.528250000000     0          
T        Si     0.347900000000     0.437600000000     0.564850000000     0          
T        Si     0.398400000000     0.391300000000     0.587200000000     0          
T        Si     0.405800000000     0.480700000000     0.586800000000     0          
T        Si     0.352200000000     0.107200000000     0.531650000000     0          
T        Si     0.350550000000     0.235100000000     0.586900000000     0          
T        Si     0.398850000000     0.137600000000     0.586400000000     0          
O        O      0.296100000000     0.565500000000     0.527800000000     0          
O        O      0.204050000000     0.634400000000     0.580050000000     0          
O        O      0.296050000000     0.693200000000     0.579350000000     0          
O        O      0.295750000000     0.762200000000     0.722550000000     0          
O        O      0.204050000000     0.889400000000     0.581800000000     0          
O        O      0.295750000000     0.966900000000     0.580950000000     0          
O        O      0.113550000000     0.965400000000     0.774150000000     0          
O        O      0.098450000000     0.936300000000     0.724700000000     0          
O        O      0.134100000000     0.920200000000     0.779850000000     0          
O        O      0.116450000000     0.836500000000     0.824000000000     0          
O        O      0.129350000000     0.882100000000     0.816000000000     0          
O        O      0.133300000000     0.791600000000     0.830550000000     0          
O        O      0.096900000000     0.807700000000     0.775450000000     0          
O        O      0.117700000000     0.708800000000     0.779400000000     0          
O        O      0.125000000000     0.750000000000     0.750000000000     0          
O        O      0.118350000000     0.747500000000     0.814550000000     0          
O        O      0.128550000000     0.626500000000     0.812900000000     0          
O        O      0.117200000000     0.581900000000     0.829750000000     0          
O        O      0.136650000000     0.536500000000     0.826750000000     0          
O        O      0.096450000000     0.496000000000     0.814300000000     0          
O        O      0.204200000000     0.965400000000     0.781700000000     0          
O        O      0.203700000000     0.889400000000     0.779750000000     0          
O        O      0.123550000000     0.879100000000     0.751400000000     0          
O        O      0.204000000000     0.761700000000     0.828100000000     0          
O        O      0.203950000000     0.692500000000     0.778350000000     0          
O        O      0.132200000000     0.663500000000     0.773450000000     0          
O        O      0.203800000000     0.635400000000     0.777100000000     0          
O        O      0.204150000000     0.567300000000     0.828300000000     0          
T        Si     0.098200000000     0.939000000000     0.764150000000     0          
T        Si     0.097900000000     0.810600000000     0.814850000000     0          
T        Si     0.101800000000     0.736000000000     0.780250000000     0          
T        Si     0.158500000000     0.981900000000     0.780150000000     0          
T        Si     0.151900000000     0.689200000000     0.763950000000     0          
T        Si     0.147550000000     0.636400000000     0.778250000000     0          
T        Si     0.152100000000     0.562400000000     0.814850000000     0          
T        Si     0.101600000000     0.608700000000     0.837200000000     0          
T        Si     0.094200000000     0.519300000000     0.836800000000     0          
T        Si     0.147800000000     0.892800000000     0.781650000000     0          
T        Si     0.149450000000     0.764900000000     0.836900000000     0          
T        Si     0.101150000000     0.862400000000     0.836400000000     0          
O        O      0.046100000000     0.934500000000     0.777800000000     0          
O        O      0.000000000000     0.900000000000     0.749200000000     0          
O        O      0.000000000000     0.904100000000     0.813850000000     0          
O        O      0.454050000000     0.865600000000     0.830050000000     0          
O        O      0.000000000000     0.889500000000     0.875000000000     0          
O        O      0.000000000000     0.783700000000     0.875000000000     0          
O        O      0.046050000000     0.806800000000     0.829350000000     0          
O        O      0.000000000000     0.768200000000     0.814150000000     0          
O        O      0.000000000000     0.772700000000     0.500350000000     0          
O        O      0.045750000000     0.737800000000     0.972550000000     0          
O        O      0.000000000000     0.571900000000     0.815850000000     0          
O        O      0.454050000000     0.610600000000     0.831800000000     0          
O        O      0.000000000000     0.608600000000     0.776200000000     0          
O        O      0.000000000000     0.535800000000     0.775000000000     0          
O        O      0.045750000000     0.533100000000     0.830950000000     0          
O        O      0.363550000000     0.534600000000     0.524150000000     0          
O        O      0.348450000000     0.563700000000     0.974700000000     0          
O        O      0.384100000000     0.579800000000     0.529850000000     0          
O        O      0.366450000000     0.663500000000     0.574000000000     0          
O        O      0.379350000000     0.617900000000     0.566000000000     0          
O        O      0.362600000000     0.634800000000     0.625000000000     0          
O        O      0.383300000000     0.708400000000     0.580550000000     0          
O        O      0.346900000000     0.692300000000     0.525450000000     0          
O        O      0.367700000000     0.791200000000     0.529400000000     0          
O        O      0.368350000000     0.752500000000     0.564550000000     0          
O        O      0.363650000000     0.885100000000     0.625000000000     0          
O        O      0.378550000000     0.873500000000     0.562900000000     0          
O        O      0.367200000000     0.918100000000     0.579750000000     0          
O        O      0.386650000000     0.963500000000     0.576750000000     0          
O        O      0.346450000000     0.004000000000     0.564300000000     0          
O        O      0.348900000000     0.987900000000     0.625000000000     0          
O        O      0.454200000000     0.534600000000     0.531700000000     0          
O        O      0.414200000000     0.500000000000     0.500000000000     0          
O        O      0.453700000000     0.610600000000     0.529750000000     0          
O        O      0.373550000000     0.620900000000     0.501400000000     0          
O        O      0.454000000000     0.738300000000     0.578100000000     0          
O        O      0.391150000000     0.741800000000     0.625000000000     0          
O        O      0.453950000000     0.807500000000     0.528350000000     0          
O        O      0.382200000000     0.836500000000     0.523450000000     0          
O        O      0.453800000000     0.864600000000     0.527100000000     0          
O        O      0.454150000000     0.932700000000     0.578300000000     0          
O        O      0.000000000000     0.572500000000     0.514300000000     0          
O        O      0.000000000000     0.760400000000     0.625000000000     0          
O        O      0.000000000000     0.777200000000     0.564850000000     0          
O        O      0.000000000000     0.893600000000     0.565000000000     0          
O        O      0.000000000000     0.910300000000     0.625000000000     0          
T        Si     0.348200000000     0.561000000000     0.514150000000     0          
T        Si     0.347900000000     0.689400000000     0.564850000000     0          
T        Si     0.351800000000     0.764000000000     0.530250000000     0          
T        Si     0.408500000000     0.518100000000     0.530150000000     0          
T        Si     0.401900000000     0.810800000000     0.513950000000     0          
T        Si     0.397550000000     0.863600000000     0.528250000000     0          
T        Si     0.402100000000     0.937600000000     0.564850000000     0          
T        Si     0.351600000000     0.891300000000     0.587200000000     0          
T        Si     0.344200000000     0.980700000000     0.586800000000     0          
T        Si     0.397800000000     0.607200000000     0.531650000000     0          
T        Si     0.399450000000     0.735100000000     0.586900000000     0          
T        Si     0.351150000000     0.637600000000     0.586400000000     0          
T        Si     0.000000000000     0.918300000000     0.779500000000     0          
T        Si     0.000000000000     0.754200000000     0.970350000000     0          
T        Si     0.000000000000     0.791200000000     0.719600000000     0          
T        Si     0.000000000000     0.880700000000     0.529750000000     0          
T        Si     0.000000000000     0.917400000000     0.586650000000     0          
T        Si     0.000000000000     0.791400000000     0.836850000000     0          
T        Si     0.000000000000     0.881200000000     0.837100000000     0          
T        Si     0.000000000000     0.600200000000     0.814100000000     0          
T        Si     0.000000000000     0.543600000000     0.813100000000     0          
T        Si     0.000000000000     0.544200000000     0.512900000000     0          
T        Si     0.000000000000     0.600700000000     0.511900000000     0          
T        Si     0.000000000000     0.753500000000     0.586550000000     0          
O        O      0.453900000000     0.065500000000     0.527800000000     0          
O        O      0.000000000000     0.100000000000     0.999200000000     0          
O        O      0.000000000000     0.095900000000     0.563850000000     0          
O        O      0.045950000000     0.134400000000     0.580050000000     0          
O        O      0.000000000000     0.110500000000     0.625000000000     0          
O        O      0.000000000000     0.216300000000     0.625000000000     0          
O        O      0.453950000000     0.193200000000     0.579350000000     0          
O        O      0.000000000000     0.231800000000     0.564150000000     0          
O        O      0.000000000000     0.227300000000     0.750350000000     0          
O        O      0.454250000000     0.262200000000     0.722550000000     0          
O        O      0.000000000000     0.428100000000     0.565850000000     0          
O        O      0.045950000000     0.389400000000     0.581800000000     0          
O        O      0.000000000000     0.391400000000     0.526200000000     0          
O        O      0.000000000000     0.464200000000     0.525000000000     0          
O        O      0.454250000000     0.466900000000     0.580950000000     0          
O        O      0.136450000000     0.465400000000     0.774150000000     0          
O        O      0.151550000000     0.436300000000     0.724700000000     0          
O        O      0.115900000000     0.420200000000     0.779850000000     0          
O        O      0.133550000000     0.336500000000     0.824000000000     0          
O        O      0.120650000000     0.382100000000     0.816000000000     0          
O        O      0.137400000000     0.365200000000     0.875000000000     0          
O        O      0.116700000000     0.291600000000     0.830550000000     0          
O        O      0.153100000000     0.307700000000     0.775450000000     0          
O        O      0.132300000000     0.208800000000     0.779400000000     0          
O        O      0.131650000000     0.247500000000     0.814550000000     0          
O        O      0.136350000000     0.114900000000     0.875000000000     0          
O        O      0.121450000000     0.126500000000     0.812900000000     0          
O        O      0.132800000000     0.081900000000     0.829750000000     0          
O        O      0.113350000000     0.036500000000     0.826750000000     0          
O        O      0.153550000000     0.996000000000     0.814300000000     0          
O        O      0.151100000000     0.012100000000     0.875000000000     0          
O        O      0.045800000000     0.465400000000     0.781700000000     0          
O        O      0.085800000000     0.500000000000     0.750000000000     0          
O        O      0.046300000000     0.389400000000     0.779750000000     0          
O        O      0.126450000000     0.379100000000     0.751400000000     0          
O        O      0.046000000000     0.261700000000     0.828100000000     0          
O        O      0.108850000000     0.258200000000     0.875000000000     0          
O        O      0.046050000000     0.192500000000     0.778350000000     0          
O        O      0.117800000000     0.163500000000     0.773450000000     0          
O        O      0.046200000000     0.135400000000     0.777100000000     0          
O        O      0.045850000000     0.067300000000     0.828300000000     0          
O        O      0.000000000000     0.427500000000     0.764300000000     0          
O        O      0.000000000000     0.239600000000     0.875000000000     0          
O        O      0.000000000000     0.222800000000     0.814850000000     0          
O        O      0.000000000000     0.106400000000     0.815000000000     0          
O        O      0.000000000000     0.089700000000     0.875000000000     0          
T        Si     0.151800000000     0.439000000000     0.764150000000     0          
T        Si     0.152100000000     0.310600000000     0.814850000000     0          
T        Si     0.148200000000     0.236000000000     0.780250000000     0          
T        Si     0.091500000000     0.481900000000     0.780150000000     0          
T        Si     0.098100000000     0.189200000000     0.763950000000     0          
T        Si     0.102450000000     0.136400000000     0.778250000000     0          
T        Si     0.097900000000     0.062400000000     0.814850000000     0          
T        Si     0.148400000000     0.108700000000     0.837200000000     0          
T        Si     0.155800000000     0.019300000000     0.836800000000     0          
T        Si     0.102200000000     0.392800000000     0.781650000000     0          
T        Si     0.100550000000     0.264900000000     0.836900000000     0          
T        Si     0.148850000000     0.362400000000     0.836400000000     0          
T        Si     0.000000000000     0.081700000000     0.529500000000     0          
T        Si     0.000000000000     0.245800000000     0.720350000000     0          
T        Si     0.000000000000     0.208800000000     0.969600000000     0          
T        Si     0.000000000000     0.119300000000     0.779750000000     0          
T        Si     0.000000000000     0.082600000000     0.836650000000     0          
T        Si     0.000000000000     0.208600000000     0.586850000000     0          
T        Si     0.000000000000     0.118800000000     0.587100000000     0          
T        Si     0.000000000000     0.399800000000     0.564100000000     0          
T        Si     0.000000000000     0.456400000000     0.563100000000     0          
T        Si     0.000000000000     0.455800000000     0.762900000000     0          
T        Si     0.000000000000     0.399300000000     0.761900000000     0          
T        Si     0.000000000000     0.246500000000     0.836550000000     0          
O        O      0.046100000000     0.065500000000     0.722200000000     0          
O        O      0.000000000000     0.100000000000     0.750800000000     0          
O        O      0.000000000000     0.095900000000     0.686150000000     0          
O        O      0.454050000000     0.134400000000     0.669950000000     0          
O        O      0.046050000000     0.193200000000     0.670650000000     0          
O        O      0.000000000000     0.231800000000     0.685850000000     0          
O        O      0.000000000000     0.227300000000     0.999650000000     0          
O        O      0.045750000000     0.262200000000     0.527450000000     0          
O        O      0.000000000000     0.428100000000     0.684150000000     0          
O        O      0.454050000000     0.389400000000     0.668200000000     0          
O        O      0.000000000000     0.391400000000     0.723800000000     0          
O        O      0.000000000000     0.464200000000     0.725000000000     0          
O        O      0.045750000000     0.466900000000     0.669050000000     0          
O        O      0.363550000000     0.465400000000     0.975850000000     0          
O        O      0.348450000000     0.436300000000     0.525300000000     0          
O        O      0.384100000000     0.420200000000     0.970150000000     0          
O        O      0.366450000000     0.336500000000     0.926000000000     0          
O        O      0.379350000000     0.382100000000     0.934000000000     0          
O        O      0.362600000000     0.365200000000     0.875000000000     0          
O        O      0.383300000000     0.291600000000     0.919450000000     0          
O        O      0.346900000000     0.307700000000     0.974550000000     0          
O        O      0.367700000000     0.208800000000     0.970600000000     0          
O        O      0.368350000000     0.247500000000     0.935450000000     0          
O        O      0.363650000000     0.114900000000     0.875000000000     0          
O        O      0.378550000000     0.126500000000     0.937100000000     0          
O        O      0.367200000000     0.081900000000     0.920250000000     0          
O        O      0.386650000000     0.036500000000     0.923250000000     0          
O        O      0.346450000000     0.996000000000     0.935700000000     0          
O        O      0.348900000000     0.012100000000     0.875000000000     0          
O        O      0.454200000000     0.465400000000     0.968300000000     0          
O        O      0.453700000000     0.389400000000     0.970250000000     0          
O        O      0.373550000000     0.379100000000     0.998600000000     0          
O        O      0.454000000000     0.261700000000     0.921900000000     0          
O        O      0.391150000000     0.258200000000     0.875000000000     0          
O        O      0.453950000000     0.192500000000     0.971650000000     0          
O        O      0.382200000000     0.163500000000     0.976550000000     0          
O        O      0.453800000000     0.135400000000     0.972900000000     0          
O        O      0.454150000000     0.067300000000     0.921700000000     0          
O        O      0.000000000000     0.427500000000     0.985700000000     0          
O        O      0.000000000000     0.222800000000     0.935150000000     0          
O        O      0.000000000000     0.106400000000     0.935000000000     0          
T        Si     0.348200000000     0.439000000000     0.985850000000     0          
T        Si     0.347900000000     0.310600000000     0.935150000000     0          
T        Si     0.351800000000     0.236000000000     0.969750000000     0          
T        Si     0.408500000000     0.481900000000     0.969850000000     0          
T        Si     0.401900000000     0.189200000000     0.986050000000     0          
T        Si     0.397550000000     0.136400000000     0.971750000000     0          
T        Si     0.402100000000     0.062400000000     0.935150000000     0          
T        Si     0.351600000000     0.108700000000     0.912800000000     0          
T        Si     0.344200000000     0.019300000000     0.913200000000     0          
T        Si     0.397800000000     0.392800000000     0.968350000000     0          
T        Si     0.399450000000     0.264900000000     0.913100000000     0          
T        Si     0.351150000000     0.362400000000     0.913600000000     0          
T        Si     0.000000000000     0.081700000000     0.720500000000     0          
T        Si     0.000000000000     0.245800000000     0.529650000000     0          
T        Si     0.000000000000     0.208800000000     0.780400000000     0          
T        Si     0.000000000000     0.119300000000     0.970250000000     0          
T        Si     0.000000000000     0.082600000000     0.913350000000     0          
T        Si     0.000000000000     0.208600000000     0.663150000000     0          
T        Si     0.000000000000     0.118800000000     0.662900000000     0          
T        Si     0.000000000000     0.399800000000     0.685900000000     0          
T        Si     0.000000000000     0.456400000000     0.686900000000     0          
T        Si     0.000000000000     0.455800000000     0.987100000000     0          
T        Si     0.000000000000     0.399300000000     0.988100000000     0          
T        Si     0.000000000000     0.246500000000     0.913450000000     0          
O        O      0.453900000000     0.934500000000     0.972200000000     0          
O        O      0.000000000000     0.900000000000     0.500800000000     0          
O        O      0.000000000000     0.904100000000     0.936150000000     0          
O        O      0.045950000000     0.865600000000     0.919950000000     0          
O        O      0.453950000000     0.806800000000     0.920650000000     0          
O        O      0.000000000000     0.768200000000     0.935850000000     0          
O        O      0.000000000000     0.772700000000     0.749650000000     0          
O        O      0.454250000000     0.737800000000     0.777450000000     0          
O        O      0.000000000000     0.571900000000     0.934150000000     0          
O        O      0.045950000000     0.610600000000     0.918200000000     0          
O        O      0.000000000000     0.608600000000     0.973800000000     0          
O        O      0.000000000000     0.535800000000     0.975000000000     0          
O        O      0.454250000000     0.533100000000     0.919050000000     0          
O        O      0.136450000000     0.534600000000     0.725850000000     0          
O        O      0.151550000000     0.563700000000     0.775300000000     0          
O        O      0.115900000000     0.579800000000     0.720150000000     0          
O        O      0.133550000000     0.663500000000     0.676000000000     0          
O        O      0.120650000000     0.617900000000     0.684000000000     0          
O        O      0.137400000000     0.634800000000     0.625000000000     0          
O        O      0.116700000000     0.708400000000     0.669450000000     0          
O        O      0.153100000000     0.692300000000     0.724550000000     0          
O        O      0.132300000000     0.791200000000     0.720600000000     0          
O        O      0.131650000000     0.752500000000     0.685450000000     0          
O        O      0.136350000000     0.885100000000     0.625000000000     0          
O        O      0.121450000000     0.873500000000     0.687100000000     0          
O        O      0.132800000000     0.918100000000     0.670250000000     0          
O        O      0.113350000000     0.963500000000     0.673250000000     0          
O        O      0.153550000000     0.004000000000     0.685700000000     0          
O        O      0.151100000000     0.987900000000     0.625000000000     0          
O        O      0.045800000000     0.534600000000     0.718300000000     0          
O        O      0.046300000000     0.610600000000     0.720250000000     0          
O        O      0.126450000000     0.620900000000     0.748600000000     0          
O        O      0.046000000000     0.738300000000     0.671900000000     0          
O        O      0.108850000000     0.741800000000     0.625000000000     0          
O        O      0.046050000000     0.807500000000     0.721650000000     0          
O        O      0.117800000000     0.836500000000     0.726550000000     0          
O        O      0.046200000000     0.864600000000     0.722900000000     0          
O        O      0.045850000000     0.932700000000     0.671700000000     0          
O        O      0.000000000000     0.572500000000     0.735700000000     0          
O        O      0.000000000000     0.777200000000     0.685150000000     0          
O        O      0.000000000000     0.893600000000     0.685000000000     0          
T        Si     0.151800000000     0.561000000000     0.735850000000     0          
T        Si     0.152100000000     0.689400000000     0.685150000000     0          
T        Si     0.148200000000     0.764000000000     0.719750000000     0          
T        Si     0.091500000000     0.518100000000     0.719850000000     0          
T        Si     0.098100000000     0.810800000000     0.736050000000     0          
T        Si     0.102450000000     0.863600000000     0.721750000000     0          
T        Si     0.097900000000     0.937600000000     0.685150000000     0          
T        Si     0.148400000000     0.891300000000     0.662800000000     0          
T        Si     0.155800000000     0.980700000000     0.663200000000     0          
T        Si     0.102200000000     0.607200000000     0.718350000000     0          
T        Si     0.100550000000     0.735100000000     0.663100000000     0          
T        Si     0.148850000000     0.637600000000     0.663600000000     0          
T        Si     0.000000000000     0.918300000000     0.970500000000     0          
T        Si     0.000000000000     0.754200000000     0.779650000000     0          
T        Si     0.000000000000     0.791200000000     0.530400000000     0          
T        Si     0.000000000000     0.880700000000     0.720250000000     0          
T        Si     0.000000000000     0.917400000000     0.663350000000     0          
T        Si     0.000000000000     0.791400000000     0.913150000000     0          
T        Si     0.000000000000     0.881200000000     0.912900000000     0          
T        Si     0.000000000000     0.600200000000     0.935900000000     0          
T        Si     0.000000000000     0.543600000000     0.936900000000     0          
T        Si     0.000000000000     0.544200000000     0.737100000000     0          
T        Si     0.000000000000     0.600700000000     0.738100000000     0          
T        Si     0.000000000000     0.753500000000     0.663450000000     0          
O        O      0.453900000000     0.065500000000     0.722200000000     0          
O        O      0.045950000000     0.134400000000     0.669950000000     0          
O        O      0.453950000000     0.193200000000     0.670650000000     0          
O        O      0.454250000000     0.262200000000     0.527450000000     0          
O        O      0.045950000000     0.389400000000     0.668200000000     0          
O        O      0.454250000000     0.466900000000     0.669050000000     0          
O        O      0.136450000000     0.465400000000     0.975850000000     0          
O        O      0.151550000000     0.436300000000     0.525300000000     0          
O        O      0.115900000000     0.420200000000     0.970150000000     0          
O        O      0.133550000000     0.336500000000     0.926000000000     0          
O        O      0.120650000000     0.382100000000     0.934000000000     0          
O        O      0.116700000000     0.291600000000     0.919450000000     0          
O        O      0.153100000000     0.307700000000     0.974550000000     0          
O        O      0.132300000000     0.208800000000     0.970600000000     0          
O        O      0.131650000000     0.247500000000     0.935450000000     0          
O        O      0.121450000000     0.126500000000     0.937100000000     0          
O        O      0.132800000000     0.081900000000     0.920250000000     0          
O        O      0.113350000000     0.036500000000     0.923250000000     0          
O        O      0.153550000000     0.996000000000     0.935700000000     0          
O        O      0.045800000000     0.465400000000     0.968300000000     0          
O        O      0.085800000000     0.500000000000     0.500000000000     0          
O        O      0.046300000000     0.389400000000     0.970250000000     0          
O        O      0.126450000000     0.379100000000     0.998600000000     0          
O        O      0.046000000000     0.261700000000     0.921900000000     0          
O        O      0.046050000000     0.192500000000     0.971650000000     0          
O        O      0.117800000000     0.163500000000     0.976550000000     0          
O        O      0.046200000000     0.135400000000     0.972900000000     0          
O        O      0.045850000000     0.067300000000     0.921700000000     0          
T        Si     0.151800000000     0.439000000000     0.985850000000     0          
T        Si     0.152100000000     0.310600000000     0.935150000000     0          
T        Si     0.148200000000     0.236000000000     0.969750000000     0          
T        Si     0.091500000000     0.481900000000     0.969850000000     0          
T        Si     0.098100000000     0.189200000000     0.986050000000     0          
T        Si     0.102450000000     0.136400000000     0.971750000000     0          
T        Si     0.097900000000     0.062400000000     0.935150000000     0          
T        Si     0.148400000000     0.108700000000     0.912800000000     0          
T        Si     0.155800000000     0.019300000000     0.913200000000     0          
T        Si     0.102200000000     0.392800000000     0.968350000000     0          
T        Si     0.100550000000     0.264900000000     0.913100000000     0          
T        Si     0.148850000000     0.362400000000     0.913600000000     0          
O        O      0.046100000000     0.934500000000     0.972200000000     0          
O        O      0.454050000000     0.865600000000     0.919950000000     0          
O        O      0.046050000000     0.806800000000     0.920650000000     0          
O        O      0.045750000000     0.737800000000     0.777450000000     0          
O        O      0.454050000000     0.610600000000     0.918200000000     0          
O        O      0.045750000000     0.533100000000     0.919050000000     0          
O        O      0.363550000000     0.534600000000     0.725850000000     0          
O        O      0.348450000000     0.563700000000     0.775300000000     0          
O        O      0.384100000000     0.579800000000     0.720150000000     0          
O        O      0.366450000000     0.663500000000     0.676000000000     0          
O        O      0.379350000000     0.617900000000     0.684000000000     0          
O        O      0.383300000000     0.708400000000     0.669450000000     0          
O        O      0.346900000000     0.692300000000     0.724550000000     0          
O        O      0.367700000000     0.791200000000     0.720600000000     0          
O        O      0.368350000000     0.752500000000     0.685450000000     0          
O        O      0.378550000000     0.873500000000     0.687100000000     0          
O        O      0.367200000000     0.918100000000     0.670250000000     0          
O        O      0.386650000000     0.963500000000     0.673250000000     0          
O        O      0.346450000000     0.004000000000     0.685700000000     0          
O        O      0.454200000000     0.534600000000     0.718300000000     0          
O        O      0.414200000000     0.500000000000     0.750000000000     0          
O        O      0.453700000000     0.610600000000     0.720250000000     0          
O        O      0.373550000000     0.620900000000     0.748600000000     0          
O        O      0.454000000000     0.738300000000     0.671900000000     0          
O        O      0.453950000000     0.807500000000     0.721650000000     0          
O        O      0.382200000000     0.836500000000     0.726550000000     0          
O        O      0.453800000000     0.864600000000     0.722900000000     0          
O        O      0.454150000000     0.932700000000     0.671700000000     0          
T        Si     0.348200000000     0.561000000000     0.735850000000     0          
T        Si     0.347900000000     0.689400000000     0.685150000000     0          
T        Si     0.351800000000     0.764000000000     0.719750000000     0          
T        Si     0.408500000000     0.518100000000     0.719850000000     0          
T        Si     0.401900000000     0.810800000000     0.736050000000     0          
T        Si     0.397550000000     0.863600000000     0.721750000000     0          
T        Si     0.402100000000     0.937600000000     0.685150000000     0          
T        Si     0.351600000000     0.891300000000     0.662800000000     0          
T        Si     0.344200000000     0.980700000000     0.663200000000     0          
T        Si     0.397800000000     0.607200000000     0.718350000000     0          
T        Si     0.399450000000     0.735100000000     0.663100000000     0          
T        Si     0.351150000000     0.637600000000     0.663600000000     0          
O        O      0.453900000000     0.934500000000     0.777800000000     0          
O        O      0.045950000000     0.865600000000     0.830050000000     0          
O        O      0.453950000000     0.806800000000     0.829350000000     0          
O        O      0.454250000000     0.737800000000     0.972550000000     0          
O        O      0.045950000000     0.610600000000     0.831800000000     0          
O        O      0.454250000000     0.533100000000     0.830950000000     0          
O        O      0.136450000000     0.534600000000     0.524150000000     0          
O        O      0.151550000000     0.563700000000     0.974700000000     0          
O        O      0.115900000000     0.579800000000     0.529850000000     0          
O        O      0.133550000000     0.663500000000     0.574000000000     0          
O        O      0.120650000000     0.617900000000     0.566000000000     0          
O        O      0.116700000000     0.708400000000     0.580550000000     0          
O        O      0.153100000000     0.692300000000     0.525450000000     0          
O        O      0.132300000000     0.791200000000     0.529400000000     0          
O        O      0.131650000000     0.752500000000     0.564550000000     0          
O        O      0.121450000000     0.873500000000     0.562900000000     0          
O        O      0.132800000000     0.918100000000     0.579750000000     0          
O        O      0.113350000000     0.963500000000     0.576750000000     0          
O        O      0.153550000000     0.004000000000     0.564300000000     0          
O        O      0.045800000000     0.534600000000     0.531700000000     0          
O        O      0.046300000000     0.610600000000     0.529750000000     0          
O        O      0.126450000000     0.620900000000     0.501400000000     0          
O        O      0.046000000000     0.738300000000     0.578100000000     0          
O        O      0.046050000000     0.807500000000     0.528350000000     0          
O        O      0.117800000000     0.836500000000     0.523450000000     0          
O        O      0.046200000000     0.864600000000     0.527100000000     0          
O        O      0.045850000000     0.932700000000     0.578300000000     0          
T        Si     0.151800000000     0.561000000000     0.514150000000     0          
T        Si     0.152100000000     0.689400000000     0.564850000000     0          
T        Si     0.148200000000     0.764000000000     0.530250000000     0          
T        Si     0.091500000000     0.518100000000     0.530150000000     0          
T        Si     0.098100000000     0.810800000000     0.513950000000     0          
T        Si     0.102450000000     0.863600000000     0.528250000000     0          
T        Si     0.097900000000     0.937600000000     0.564850000000     0          
T        Si     0.148400000000     0.891300000000     0.587200000000     0          
T        Si     0.155800000000     0.980700000000     0.586800000000     0          
T        Si     0.102200000000     0.607200000000     0.531650000000     0          
T        Si     0.100550000000     0.735100000000     0.586900000000     0          
T        Si     0.148850000000     0.637600000000     0.586400000000     0          
O        O      0.046100000000     0.065500000000     0.527800000000     0          
O        O      0.454050000000     0.134400000000     0.580050000000     0          
O        O      0.046050000000     0.193200000000     0.579350000000     0          
O        O      0.045750000000     0.262200000000     0.722550000000     0          
O        O      0.454050000000     0.389400000000     0.581800000000     0          
O        O      0.045750000000     0.466900000000     0.580950000000     0          
O        O      0.363550000000     0.465400000000     0.774150000000     0          
O        O      0.348450000000     0.436300000000     0.724700000000     0          
O        O      0.384100000000     0.420200000000     0.779850000000     0          
O        O      0.366450000000     0.336500000000     0.824000000000     0          
O        O      0.379350000000     0.382100000000     0.816000000000     0          
O        O      0.383300000000     0.291600000000     0.830550000000     0          
O        O      0.346900000000     0.307700000000     0.775450000000     0          
O        O      0.367700000000     0.208800000000     0.779400000000     0          
O        O      0.368350000000     0.247500000000     0.814550000000     0          
O        O      0.378550000000     0.126500000000     0.812900000000     0          
O        O      0.367200000000     0.081900000000     0.829750000000     0          
O        O      0.386650000000     0.036500000000     0.826750000000     0          
O        O      0.346450000000     0.996000000000     0.814300000000     0          
O        O      0.454200000000     0.465400000000     0.781700000000     0          
O        O      0.453700000000     0.389400000000     0.779750000000     0          
O        O      0.373550000000     0.379100000000     0.751400000000     0          
O        O      0.454000000000     0.261700000000     0.828100000000     0          
O        O      0.453950000000     0.192500000000     0.778350000000     0          
O        O      0.382200000000     0.163500000000     0.773450000000     0          
O        O      0.453800000000     0.135400000000     0.777100000000     0          
O        O      0.454150000000     0.067300000000     0.828300000000     0          
T        Si     0.348200000000     0.439000000000     0.764150000000     0          
T        Si     0.347900000000     0.310600000000     0.814850000000     0          
T        Si     0.351800000000     0.236000000000     0.780250000000     0          
T        Si     0.408500000000     0.481900000000     0.780150000000     0          
T        Si     0.401900000000     0.189200000000     0.763950000000     0          
T        Si     0.397550000000     0.136400000000     0.778250000000     0          
T        Si     0.402100000000     0.062400000000     0.814850000000     0          
T        Si     0.351600000000     0.108700000000     0.837200000000     0          
T        Si     0.344200000000     0.019300000000     0.836800000000     0          
T        Si     0.397800000000     0.392800000000     0.781650000000     0          
T        Si     0.399450000000     0.264900000000     0.836900000000     0          
T        Si     0.351150000000     0.362400000000     0.836400000000     0          
O        O      0.796100000000     0.434500000000     0.277800000000     0          
O        O      0.750000000000     0.400000000000     0.249200000000     0          
O        O      0.750000000000     0.404100000000     0.313850000000     0          
O        O      0.704050000000     0.365600000000     0.330050000000     0          
O        O      0.750000000000     0.389500000000     0.375000000000     0          
O        O      0.750000000000     0.283700000000     0.375000000000     0          
O        O      0.796050000000     0.306800000000     0.329350000000     0          
O        O      0.750000000000     0.268200000000     0.314150000000     0          
O        O      0.750000000000     0.272700000000     0.000350000000     0          
O        O      0.795750000000     0.237800000000     0.472550000000     0          
O        O      0.750000000000     0.071900000000     0.315850000000     0          
O        O      0.704050000000     0.110600000000     0.331800000000     0          
O        O      0.750000000000     0.108600000000     0.276200000000     0          
O        O      0.750000000000     0.035800000000     0.275000000000     0          
O        O      0.795750000000     0.033100000000     0.330950000000     0          
O        O      0.613550000000     0.034600000000     0.024150000000     0          
O        O      0.598450000000     0.063700000000     0.474700000000     0          
O        O      0.634100000000     0.079800000000     0.029850000000     0          
O        O      0.616450000000     0.163500000000     0.074000000000     0          
O        O      0.629350000000     0.117900000000     0.066000000000     0          
O        O      0.612600000000     0.134800000000     0.125000000000     0          
O        O      0.633300000000     0.208400000000     0.080550000000     0          
O        O      0.596900000000     0.192300000000     0.025450000000     0          
O        O      0.617700000000     0.291200000000     0.029400000000     0          
O        O      0.625000000000     0.250000000000     0.000000000000     0          
O        O      0.618350000000     0.252500000000     0.064550000000     0          
O        O      0.613650000000     0.385100000000     0.125000000000     0          
O        O      0.628550000000     0.373500000000     0.062900000000     0          
O        O      0.617200000000     0.418100000000     0.079750000000     0          
O        O      0.636650000000     0.463500000000     0.076750000000     0          
O        O      0.596450000000     0.504000000000     0.064300000000     0          
O        O      0.598900000000     0.487900000000     0.125000000000     0          
O        O      0.704200000000     0.034600000000     0.031700000000     0          
O        O      0.664200000000     0.000000000000     0.000000000000     0          
O        O      0.703700000000     0.110600000000     0.029750000000     0          
O        O      0.623550000000     0.120900000000     0.001400000000     0          
O        O      0.704000000000     0.238300000000     0.078100000000     0          
O        O      0.641150000000     0.241800000000     0.125000000000     0          
O        O      0.703950000000     0.307500000000     0.028350000000     0          
O        O      0.632200000000     0.336500000000     0.023450000000     0          
O        O      0.703800000000     0.364600000000     0.027100000000     0          
O        O      0.704150000000     0.432700000000     0.078300000000     0          
O        O      0.750000000000     0.072500000000     0.014300000000     0          
O        O      0.750000000000     0.260400000000     0.125000000000     0          
O        O      0.750000000000     0.277200000000     0.064850000000     0          
O        O      0.750000000000     0.393600000000     0.065000000000     0          
O        O      0.750000000000     0.410300000000     0.125000000000     0          
T        Si     0.598200000000     0.061000000000     0.014150000000     0          
T        Si     0.597900000000     0.189400000000     0.064850000000     0          
T        Si     0.601800000000     0.264000000000     0.030250000000     0          
T        Si     0.658500000000     0.018100000000     0.030150000000     0          
T        Si     0.651900000000     0.310800000000     0.013950000000     0          
T        Si     0.647550000000     0.363600000000     0.028250000000     0          
T        Si     0.652100000000     0.437600000000     0.064850000000     0          
T        Si     0.601600000000     0.391300000000     0.087200000000     0          
T        Si     0.594200000000     0.480700000000     0.086800000000     0          
T        Si     0.647800000000     0.107200000000     0.031650000000     0          
T        Si     0.649450000000     0.235100000000     0.086900000000     0          
T        Si     0.601150000000     0.137600000000     0.086400000000     0          
T        Si     0.750000000000     0.418300000000     0.279500000000     0          
T        Si     0.750000000000     0.254200000000     0.470350000000     0          
T        Si     0.750000000000     0.291200000000     0.219600000000     0          
T        Si     0.750000000000     0.380700000000     0.029750000000     0          
T        Si     0.750000000000     0.417400000000     0.086650000000     0          
T        Si     0.750000000000     0.291400000000     0.336850000000     0          
T        Si     0.750000000000     0.381200000000     0.337100000000     0          
T        Si     0.750000000000     0.100200000000     0.314100000000     0          
T        Si     0.750000000000     0.043600000000     0.313100000000     0          
T        Si     0.750000000000     0.044200000000     0.012900000000     0          
T        Si     0.750000000000     0.100700000000     0.011900000000     0          
T        Si     0.750000000000     0.253500000000     0.086550000000     0          
O        O      0.703900000000     0.565500000000     0.027800000000     0          
O        O      0.750000000000     0.600000000000     0.499200000000     0          
O        O      0.750000000000     0.595900000000     0.063850000000     0          
O        O      0.795950000000     0.634400000000     0.080050000000     0          
O        O      0.750000000000     0.610500000000     0.125000000000     0          
O        O      0.750000000000     0.716300000000     0.125000000000     0          
O        O      0.703950000000     0.693200000000     0.079350000000     0          
O        O      0.750000000000     0.731800000000     0.064150000000     0          
O        O      0.750000000000     0.727300000000     0.250350000000     0          
O        O      0.704250000000     0.762200000000     0.222550000000     0          
O        O      0.750000000000     0.928100000000     0.065850000000     0          
O        O      0.795950000000     0.889400000000     0.081800000000     0          
O        O      0.750000000000     0.891400000000     0.026200000000     0          
O        O      0.750000000000     0.964200000000     0.025000000000     0          
O        O      0.704250000000     0.966900000000     0.080950000000     0          
O        O      0.886450000000     0.965400000000     0.274150000000     0          
O        O      0.901550000000     0.936300000000     0.224700000000     0          
O        O      0.865900000000     0.920200000000     0.279850000000     0          
O        O      0.883550000000     0.836500000000     0.324000000000     0          
O        O      0.870650000000     0.882100000000     0.316000000000     0          
O        O      0.887400000000     0.865200000000     0.375000000000     0          
O        O      0.866700000000     0.791600000000     0.330550000000     0          
O        O      0.903100000000     0.807700000000     0.275450000000     0          
O        O      0.882300000000     0.708800000000     0.279400000000     0          
O        O      0.875000000000     0.750000000000     0.250000000000     0          
O        O      0.881650000000     0.747500000000     0.314550000000     0          
O        O      0.886350000000     0.614900000000     0.375000000000     0          
O        O      0.871450000000     0.626500000000     0.312900000000     0          
O        O      0.882800000000     0.581900000000     0.329750000000     0          
O        O      0.863350000000     0.536500000000     0.326750000000     0          
O        O      0.903550000000     0.496000000000     0.314300000000     0          
O        O      0.901100000000     0.512100000000     0.375000000000     0          
O        O      0.795800000000     0.965400000000     0.281700000000     0          
O        O      0.835800000000     0.000000000000     0.250000000000     0          
O        O      0.796300000000     0.889400000000     0.279750000000     0          
O        O      0.876450000000     0.879100000000     0.251400000000     0          
O        O      0.796000000000     0.761700000000     0.328100000000     0          
O        O      0.858850000000     0.758200000000     0.375000000000     0          
O        O      0.796050000000     0.692500000000     0.278350000000     0          
O        O      0.867800000000     0.663500000000     0.273450000000     0          
O        O      0.796200000000     0.635400000000     0.277100000000     0          
O        O      0.795850000000     0.567300000000     0.328300000000     0          
O        O      0.750000000000     0.927500000000     0.264300000000     0          
O        O      0.750000000000     0.739600000000     0.375000000000     0          
O        O      0.750000000000     0.722800000000     0.314850000000     0          
O        O      0.750000000000     0.606400000000     0.315000000000     0          
O        O      0.750000000000     0.589700000000     0.375000000000     0          
T        Si     0.901800000000     0.939000000000     0.264150000000     0          
T        Si     0.902100000000     0.810600000000     0.314850000000     0          
T        Si     0.898200000000     0.736000000000     0.280250000000     0          
T        Si     0.841500000000     0.981900000000     0.280150000000     0          
T        Si     0.848100000000     0.689200000000     0.263950000000     0          
T        Si     0.852450000000     0.636400000000     0.278250000000     0          
T        Si     0.847900000000     0.562400000000     0.314850000000     0          
T        Si     0.898400000000     0.608700000000     0.337200000000     0          
T        Si     0.905800000000     0.519300000000     0.336800000000     0          
T        Si     0.852200000000     0.892800000000     0.281650000000     0          
T        Si     0.850550000000     0.764900000000     0.336900000000     0          
T        Si     0.898850000000     0.862400000000     0.336400000000     0          
T        Si     0.750000000000     0.581700000000     0.029500000000     0          
T        Si     0.750000000000     0.745800000000     0.220350000000     0          
T        Si     0.750000000000     0.708800000000     0.469600000000     0          
T        Si     0.750000000000     0.619300000000     0.279750000000     0          
T        Si     0.750000000000     0.582600000000     0.336650000000     0          
T        Si     0.750000000000     0.708600000000     0.086850000000     0          
T        Si     0.750000000000     0.618800000000     0.087100000000     0          
T        Si     0.750000000000     0.899800000000     0.064100000000     0          
T        Si     0.750000000000     0.956400000000     0.063100000000     0          
T        Si     0.750000000000     0.955800000000     0.262900000000     0          
T        Si     0.750000000000     0.899300000000     0.261900000000     0          
T        Si     0.750000000000     0.746500000000     0.336550000000     0          
O        O      0.796100000000     0.565500000000     0.222200000000     0          
O        O      0.750000000000     0.600000000000     0.250800000000     0          
O        O      0.750000000000     0.595900000000     0.186150000000     0          
O        O      0.704050000000     0.634400000000     0.169950000000     0          
O        O      0.796050000000     0.693200000000     0.170650000000     0          
O        O      0.750000000000     0.731800000000     0.185850000000     0          
O        O      0.750000000000     0.727300000000     0.499650000000     0          
O        O      0.795750000000     0.762200000000     0.027450000000     0          
O        O      0.750000000000     0.928100000000     0.184150000000     0          
O        O      0.704050000000     0.889400000000     0.168200000000     0          
O        O      0.750000000000     0.891400000000     0.223800000000     0          
O        O      0.750000000000     0.964200000000     0.225000000000     0          
O        O      0.795750000000     0.966900000000     0.169050000000     0          
O        O      0.613550000000     0.965400000000     0.475850000000     0          
O        O      0.598450000000     0.936300000000     0.025300000000     0          
O        O      0.634100000000     0.920200000000     0.470150000000     0          
O        O      0.616450000000     0.836500000000     0.426000000000     0          
O        O      0.629350000000     0.882100000000     0.434000000000     0          
O        O      0.612600000000     0.865200000000     0.375000000000     0          
O        O      0.633300000000     0.791600000000     0.419450000000     0          
O        O      0.596900000000     0.807700000000     0.474550000000     0          
O        O      0.617700000000     0.708800000000     0.470600000000     0          
O        O      0.625000000000     0.750000000000     0.000000000000     0          
O        O      0.618350000000     0.747500000000     0.435450000000     0          
O        O      0.613650000000     0.614900000000     0.375000000000     0          
O        O      0.628550000000     0.626500000000     0.437100000000     0          
O        O      0.617200000000     0.581900000000     0.420250000000     0          
O        O      0.636650000000     0.536500000000     0.423250000000     0          
O        O      0.596450000000     0.496000000000     0.435700000000     0          
O        O      0.598900000000     0.512100000000     0.375000000000     0          
O        O      0.704200000000     0.965400000000     0.468300000000     0          
O        O      0.703700000000     0.889400000000     0.470250000000     0          
O        O      0.623550000000     0.879100000000     0.498600000000     0          
O        O      0.704000000000     0.761700000000     0.421900000000     0          
O        O      0.641150000000     0.758200000000     0.375000000000     0          
O        O      0.703950000000     0.692500000000     0.471650000000     0          
O        O      0.632200000000     0.663500000000     0.476550000000     0          
O        O      0.703800000000     0.635400000000     0.472900000000     0          
O        O      0.704150000000     0.567300000000     0.421700000000     0          
O        O      0.750000000000     0.927500000000     0.485700000000     0          
O        O      0.750000000000     0.722800000000     0.435150000000     0          
O        O      0.750000000000     0.606400000000     0.435000000000     0          
T        Si     0.598200000000     0.939000000000     0.485850000000     0          
T        Si     0.597900000000     0.810600000000     0.435150000000     0          
T        Si     0.601800000000     0.736000000000     0.469750000000     0          
T        Si     0.658500000000     0.981900000000     0.469850000000     0          
T        Si     0.651900000000     0.689200000000     0.486050000000     0          
T        Si     0.647550000000     0.636400000000     0.471750000000     0          
T        Si     0.652100000000     0.562400000000     0.435150000000     0          
T        Si     0.601600000000     0.608700000000     0.412800000000     0          
T        Si     0.594200000000     0.519300000000     0.413200000000     0          
T        Si     0.647800000000     0.892800000000     0.468350000000     0          
T        Si     0.649450000000     0.764900000000     0.413100000000     0          
T        Si     0.601150000000     0.862400000000     0.413600000000     0          
T        Si     0.750000000000     0.581700000000     0.220500000000     0          
T        Si     0.750000000000     0.745800000000     0.029650000000     0          
T        Si     0.750000000000     0.708800000000     0.280400000000     0          
T        Si     0.750000000000     0.619300000000     0.470250000000     0          
T        Si     0.750000000000     0.582600000000     0.413350000000     0          
T        Si     0.750000000000     0.708600000000     0.163150000000     0          
T        Si     0.750000000000     0.618800000000     0.162900000000     0          
T        Si     0.750000000000     0.899800000000     0.185900000000     0          
T        Si     0.750000000000     0.956400000000     0.186900000000     0          
T        Si     0.750000000000     0.955800000000     0.487100000000     0          
T        Si     0.750000000000     0.899300000000     0.488100000000     0          
T        Si     0.750000000000     0.746500000000     0.413450000000     0          
O        O      0.703900000000     0.434500000000     0.472200000000     0          
O        O      0.750000000000     0.400000000000     0.000800000000     0          
O        O      0.750000000000     0.404100000000     0.436150000000     0          
O        O      0.795950000000     0.365600000000     0.419950000000     0          
O        O      0.703950000000     0.306800000000     0.420650000000     0          
O        O      0.750000000000     0.268200000000     0.435850000000     0          
O        O      0.750000000000     0.272700000000     0.249650000000     0          
O        O      0.704250000000     0.237800000000     0.277450000000     0          
O        O      0.750000000000     0.071900000000     0.434150000000     0          
O        O      0.795950000000     0.110600000000     0.418200000000     0          
O        O      0.750000000000     0.108600000000     0.473800000000     0          
O        O      0.750000000000     0.035800000000     0.475000000000     0          
O        O      0.704250000000     0.033100000000     0.419050000000     0          
O        O      0.886450000000     0.034600000000     0.225850000000     0          
O        O      0.901550000000     0.063700000000     0.275300000000     0          
O        O      0.865900000000     0.079800000000     0.220150000000     0          
O        O      0.883550000000     0.163500000000     0.176000000000     0          
O        O      0.870650000000     0.117900000000     0.184000000000     0          
O        O      0.887400000000     0.134800000000     0.125000000000     0          
O        O      0.866700000000     0.208400000000     0.169450000000     0          
O        O      0.903100000000     0.192300000000     0.224550000000     0          
O        O      0.882300000000     0.291200000000     0.220600000000     0          
O        O      0.875000000000     0.250000000000     0.250000000000     0          
O        O      0.881650000000     0.252500000000     0.185450000000     0          
O        O      0.886350000000     0.385100000000     0.125000000000     0          
O        O      0.871450000000     0.373500000000     0.187100000000     0          
O        O      0.882800000000     0.418100000000     0.170250000000     0          
O        O      0.863350000000     0.463500000000     0.173250000000     0          
O        O      0.903550000000     0.504000000000     0.185700000000     0          
O        O      0.901100000000     0.487900000000     0.125000000000     0          
O        O      0.795800000000     0.034600000000     0.218300000000     0          
O        O      0.796300000000     0.110600000000     0.220250000000     0          
O        O      0.876450000000     0.120900000000     0.248600000000     0          
O        O      0.796000000000     0.238300000000     0.171900000000     0          
O        O      0.858850000000     0.241800000000     0.125000000000     0          
O        O      0.796050000000     0.307500000000     0.221650000000     0          
O        O      0.867800000000     0.336500000000     0.226550000000     0          
O        O      0.796200000000     0.364600000000     0.222900000000     0          
O        O      0.795850000000     0.432700000000     0.171700000000     0          
O        O      0.750000000000     0.072500000000     0.235700000000     0          
O        O      0.750000000000     0.277200000000     0.185150000000     0          
O        O      0.750000000000     0.393600000000     0.185000000000     0          
T        Si     0.901800000000     0.061000000000     0.235850000000     0          
T        Si     0.902100000000     0.189400000000     0.185150000000     0          
T        Si     0.898200000000     0.264000000000     0.219750000000     0          
T        Si     0.841500000000     0.018100000000     0.219850000000     0          
T        Si     0.848100000000     0.310800000000     0.236050000000     0          
T        Si     0.852450000000     0.363600000000     0.221750000000     0          
T        Si     0.847900000000     0.437600000000     0.185150000000     0          
T        Si     0.898400000000     0.391300000000     0.162800000000     0          
T        Si     0.905800000000     0.480700000000     0.163200000000     0          
T        Si     0.852200000000     0.107200000000     0.218350000000     0          
T        Si     0.850550000000     0.235100000000     0.163100000000     0          
T        Si     0.898850000000     0.137600000000     0.163600000000     0          
T        Si     0.750000000000     0.418300000000     0.470500000000     0          
T        Si     0.750000000000     0.254200000000     0.279650000000     0          
T        Si     0.750000000000     0.291200000000     0.030400000000     0          
T        Si     0.750000000000     0.380700000000     0.220250000000     0          
T        Si     0.750000000000     0.417400000000     0.163350000000     0          
T        Si     0.750000000000     0.291400000000     0.413150000000     0          
T        Si     0.750000000000     0.381200000000     0.412900000000     0          
T        Si     0.750000000000     0.100200000000     0.435900000000     0          
T        Si     0.750000000000     0.043600000000     0.436900000000     0          
T        Si     0.750000000000     0.044200000000     0.237100000000     0          
T        Si     0.750000000000     0.100700000000     0.238100000000     0          
T        Si     0.750000000000     0.253500000000     0.163450000000     0          
O        O      0.703900000000     0.565500000000     0.222200000000     0          
O        O      0.795950000000     0.634400000000     0.169950000000     0          
O        O      0.703950000000     0.693200000000     0.170650000000     0          
O        O      0.704250000000     0.762200000000     0.027450000000     0          
O        O      0.795950000000     0.889400000000     0.168200000000     0          
O        O      0.704250000000     0.966900000000     0.169050000000     0          
O        O      0.886450000000     0.965400000000     0.475850000000     0          
O        O      0.901550000000     0.936300000000     0.025300000000     0          
O        O      0.865900000000     0.920200000000     0.470150000000     0          
O        O      0.883550000000     0.836500000000     0.426000000000     0          
O        O      0.870650000000     0.882100000000     0.434000000000     0          
O        O      0.866700000000     0.791600000000     0.419450000000     0          
O        O      0.903100000000     0.807700000000     0.474550000000     0          
O        O      0.882300000000     0.708800000000     0.470600000000     0          
O        O      0.875000000000     0.750000000000     0.000000000000     0          
O        O      0.881650000000     0.747500000000     0.435450000000     0          
O        O      0.871450000000     0.626500000000     0.437100000000     0          
O        O      0.882800000000     0.581900000000     0.420250000000     0          
O        O      0.863350000000     0.536500000000     0.423250000000     0          
O        O      0.903550000000     0.496000000000     0.435700000000     0          
O        O      0.795800000000     0.965400000000     0.468300000000     0          
O        O      0.835800000000     0.000000000000     0.000000000000     0          
O        O      0.796300000000     0.889400000000     0.470250000000     0          
O        O      0.876450000000     0.879100000000     0.498600000000     0          
O        O      0.796000000000     0.761700000000     0.421900000000     0          
O        O      0.796050000000     0.692500000000     0.471650000000     0          
O        O      0.867800000000     0.663500000000     0.476550000000     0          
O        O      0.796200000000     0.635400000000     0.472900000000     0          
O        O      0.795850000000     0.567300000000     0.421700000000     0          
T        Si     0.901800000000     0.939000000000     0.485850000000     0          
T        Si     0.902100000000     0.810600000000     0.435150000000     0          
T        Si     0.898200000000     0.736000000000     0.469750000000     0          
T        Si     0.841500000000     0.981900000000     0.469850000000     0          
T        Si     0.848100000000     0.689200000000     0.486050000000     0          
T        Si     0.852450000000     0.636400000000     0.471750000000     0          
T        Si     0.847900000000     0.562400000000     0.435150000000     0          
T        Si     0.898400000000     0.608700000000     0.412800000000     0          
T        Si     0.905800000000     0.519300000000     0.413200000000     0          
T        Si     0.852200000000     0.892800000000     0.468350000000     0          
T        Si     0.850550000000     0.764900000000     0.413100000000     0          
T        Si     0.898850000000     0.862400000000     0.413600000000     0          
O        O      0.796100000000     0.434500000000     0.472200000000     0          
O        O      0.704050000000     0.365600000000     0.419950000000     0          
O        O      0.796050000000     0.306800000000     0.420650000000     0          
O        O      0.795750000000     0.237800000000     0.277450000000     0          
O        O      0.704050000000     0.110600000000     0.418200000000     0          
O        O      0.795750000000     0.033100000000     0.419050000000     0          
O        O      0.613550000000     0.034600000000     0.225850000000     0          
O        O      0.598450000000     0.063700000000     0.275300000000     0          
O        O      0.634100000000     0.079800000000     0.220150000000     0          
O        O      0.616450000000     0.163500000000     0.176000000000     0          
O        O      0.629350000000     0.117900000000     0.184000000000     0          
O        O      0.633300000000     0.208400000000     0.169450000000     0          
O        O      0.596900000000     0.192300000000     0.224550000000     0          
O        O      0.617700000000     0.291200000000     0.220600000000     0          
O        O      0.625000000000     0.250000000000     0.250000000000     0          
O        O      0.618350000000     0.252500000000     0.185450000000     0          
O        O      0.628550000000     0.373500000000     0.187100000000     0          
O        O      0.617200000000     0.418100000000     0.170250000000     0          
O        O      0.636650000000     0.463500000000     0.173250000000     0          
O        O      0.596450000000     0.504000000000     0.185700000000     0          
O        O      0.704200000000     0.034600000000     0.218300000000     0          
O        O      0.664200000000     0.000000000000     0.250000000000     0          
O        O      0.703700000000     0.110600000000     0.220250000000     0          
O        O      0.623550000000     0.120900000000     0.248600000000     0          
O        O      0.704000000000     0.238300000000     0.171900000000     0          
O        O      0.703950000000     0.307500000000     0.221650000000     0          
O        O      0.632200000000     0.336500000000     0.226550000000     0          
O        O      0.703800000000     0.364600000000     0.222900000000     0          
O        O      0.704150000000     0.432700000000     0.171700000000     0          
T        Si     0.598200000000     0.061000000000     0.235850000000     0          
T        Si     0.597900000000     0.189400000000     0.185150000000     0          
T        Si     0.601800000000     0.264000000000     0.219750000000     0          
T        Si     0.658500000000     0.018100000000     0.219850000000     0          
T        Si     0.651900000000     0.310800000000     0.236050000000     0          
T        Si     0.647550000000     0.363600000000     0.221750000000     0          
T        Si     0.652100000000     0.437600000000     0.185150000000     0          
T        Si     0.601600000000     0.391300000000     0.162800000000     0          
T        Si     0.594200000000     0.480700000000     0.163200000000     0          
T        Si     0.647800000000     0.107200000000     0.218350000000     0          
T        Si     0.649450000000     0.235100000000     0.163100000000     0          
T        Si     0.601150000000     0.137600000000     0.163600000000     0          
O        O      0.703900000000     0.434500000000     0.277800000000     0          
O        O      0.795950000000     0.365600000000     0.330050000000     0          
O        O      0.703950000000     0.306800000000     0.329350000000     0          
O        O      0.704250000000     0.237800000000     0.472550000000     0          
O        O      0.795950000000     0.110600000000     0.331800000000     0          
O        O      0.704250000000     0.033100000000     0.330950000000     0          
O        O      0.886450000000     0.034600000000     0.024150000000     0          
O        O      0.901550000000     0.063700000000     0.474700000000     0          
O        O      0.865900000000     0.079800000000     0.029850000000     0          
O        O      0.883550000000     0.163500000000     0.074000000000     0          
O        O      0.870650000000     0.117900000000     0.066000000000     0          
O        O      0.866700000000     0.208400000000     0.080550000000     0          
O        O      0.903100000000     0.192300000000     0.025450000000     0          
O        O      0.882300000000     0.291200000000     0.029400000000     0          
O        O      0.875000000000     0.250000000000     0.000000000000     0          
O        O      0.881650000000     0.252500000000     0.064550000000     0          
O        O      0.871450000000     0.373500000000     0.062900000000     0          
O        O      0.882800000000     0.418100000000     0.079750000000     0          
O        O      0.863350000000     0.463500000000     0.076750000000     0          
O        O      0.903550000000     0.504000000000     0.064300000000     0          
O        O      0.795800000000     0.034600000000     0.031700000000     0          
O        O      0.796300000000     0.110600000000     0.029750000000     0          
O        O      0.876450000000     0.120900000000     0.001400000000     0          
O        O      0.796000000000     0.238300000000     0.078100000000     0          
O        O      0.796050000000     0.307500000000     0.028350000000     0          
O        O      0.867800000000     0.336500000000     0.023450000000     0          
O        O      0.796200000000     0.364600000000     0.027100000000     0          
O        O      0.795850000000     0.432700000000     0.078300000000     0          
T        Si     0.901800000000     0.061000000000     0.014150000000     0          
T        Si     0.902100000000     0.189400000000     0.064850000000     0          
T        Si     0.898200000000     0.264000000000     0.030250000000     0          
T        Si     0.841500000000     0.018100000000     0.030150000000     0          
T        Si     0.848100000000     0.310800000000     0.013950000000     0          
T        Si     0.852450000000     0.363600000000     0.028250000000     0          
T        Si     0.847900000000     0.437600000000     0.064850000000     0          
T        Si     0.898400000000     0.391300000000     0.087200000000     0          
T        Si     0.905800000000     0.480700000000     0.086800000000     0          
T        Si     0.852200000000     0.107200000000     0.031650000000     0          
T        Si     0.850550000000     0.235100000000     0.086900000000     0          
T        Si     0.898850000000     0.137600000000     0.086400000000     0          
O        O      0.796100000000     0.565500000000     0.027800000000     0          
O        O      0.704050000000     0.634400000000     0.080050000000     0          
O        O      0.796050000000     0.693200000000     0.079350000000     0          
O        O      0.795750000000     0.762200000000     0.222550000000     0          
O        O      0.704050000000     0.889400000000     0.081800000000     0          
O        O      0.795750000000     0.966900000000     0.080950000000     0          
O        O      0.613550000000     0.965400000000     0.274150000000     0          
O        O      0.598450000000     0.936300000000     0.224700000000     0          
O        O      0.634100000000     0.920200000000     0.279850000000     0          
O        O      0.616450000000     0.836500000000     0.324000000000     0          
O        O      0.629350000000     0.882100000000     0.316000000000     0          
O        O      0.633300000000     0.791600000000     0.330550000000     0          
O        O      0.596900000000     0.807700000000     0.275450000000     0          
O        O      0.617700000000     0.708800000000     0.279400000000     0          
O        O      0.625000000000     0.750000000000     0.250000000000     0          
O        O      0.618350000000     0.747500000000     0.314550000000     0          
O        O      0.628550000000     0.626500000000     0.312900000000     0          
O        O      0.617200000000     0.581900000000     0.329750000000     0          
O        O      0.636650000000     0.536500000000     0.326750000000     0          
O        O      0.596450000000     0.496000000000     0.314300000000     0          
O        O      0.704200000000     0.965400000000     0.281700000000     0          
O        O      0.703700000000     0.889400000000     0.279750000000     0          
O        O      0.623550000000     0.879100000000     0.251400000000     0          
O        O      0.704000000000     0.761700000000     0.328100000000     0          
O        O      0.703950000000     0.692500000000     0.278350000000     0          
O        O      0.632200000000     0.663500000000     0.273450000000     0          
O        O      0.703800000000     0.635400000000     0.277100000000     0          
O        O      0.704150000000     0.567300000000     0.328300000000     0          
T        Si     0.598200000000     0.939000000000     0.264150000000     0          
T        Si     0.597900000000     0.810600000000     0.314850000000     0          
T        Si     0.601800000000     0.736000000000     0.280250000000     0          
T        Si     0.658500000000     0.981900000000     0.280150000000     0          
T        Si     0.651900000000     0.689200000000     0.263950000000     0          
T        Si     0.647550000000     0.636400000000     0.278250000000     0          
T        Si     0.652100000000     0.562400000000     0.314850000000     0          
T        Si     0.601600000000     0.608700000000     0.337200000000     0          
T        Si     0.594200000000     0.519300000000     0.336800000000     0          
T        Si     0.647800000000     0.892800000000     0.281650000000     0          
T        Si     0.649450000000     0.764900000000     0.336900000000     0          
T        Si     0.601150000000     0.862400000000     0.336400000000     0          
O        O      0.546100000000     0.934500000000     0.277800000000     0          
O        O      0.500000000000     0.900000000000     0.249200000000     0          
O        O      0.500000000000     0.904100000000     0.313850000000     0          
O        O      0.954050000000     0.865600000000     0.330050000000     0          
O        O      0.500000000000     0.889500000000     0.375000000000     0          
O        O      0.500000000000     0.783700000000     0.375000000000     0          
O        O      0.546050000000     0.806800000000     0.329350000000     0          
O        O      0.500000000000     0.768200000000     0.314150000000     0          
O        O      0.500000000000     0.772700000000     0.000350000000     0          
O        O      0.545750000000     0.737800000000     0.472550000000     0          
O        O      0.500000000000     0.571900000000     0.315850000000     0          
O        O      0.954050000000     0.610600000000     0.331800000000     0          
O        O      0.500000000000     0.608600000000     0.276200000000     0          
O        O      0.500000000000     0.535800000000     0.275000000000     0          
O        O      0.545750000000     0.533100000000     0.330950000000     0          
O        O      0.863550000000     0.534600000000     0.024150000000     0          
O        O      0.848450000000     0.563700000000     0.474700000000     0          
O        O      0.884100000000     0.579800000000     0.029850000000     0          
O        O      0.866450000000     0.663500000000     0.074000000000     0          
O        O      0.879350000000     0.617900000000     0.066000000000     0          
O        O      0.862600000000     0.634800000000     0.125000000000     0          
O        O      0.883300000000     0.708400000000     0.080550000000     0          
O        O      0.846900000000     0.692300000000     0.025450000000     0          
O        O      0.867700000000     0.791200000000     0.029400000000     0          
O        O      0.868350000000     0.752500000000     0.064550000000     0          
O        O      0.863650000000     0.885100000000     0.125000000000     0          
O        O      0.878550000000     0.873500000000     0.062900000000     0          
O        O      0.867200000000     0.918100000000     0.079750000000     0          
O        O      0.886650000000     0.963500000000     0.076750000000     0          
O        O      0.846450000000     0.004000000000     0.064300000000     0          
O        O      0.848900000000     0.987900000000     0.125000000000     0          
O        O      0.954200000000     0.534600000000     0.031700000000     0          
O        O      0.914200000000     0.500000000000     0.000000000000     0          
O        O      0.953700000000     0.610600000000     0.029750000000     0          
O        O      0.873550000000     0.620900000000     0.001400000000     0          
O        O      0.954000000000     0.738300000000     0.078100000000     0          
O        O      0.891150000000     0.741800000000     0.125000000000     0          
O        O      0.953950000000     0.807500000000     0.028350000000     0          
O        O      0.882200000000     0.836500000000     0.023450000000     0          
O        O      0.953800000000     0.864600000000     0.027100000000     0          
O        O      0.954150000000     0.932700000000     0.078300000000     0          
O        O      0.500000000000     0.572500000000     0.014300000000     0          
O        O      0.500000000000     0.760400000000     0.125000000000     0          
O        O      0.500000000000     0.777200000000     0.064850000000     0          
O        O      0.500000000000     0.893600000000     0.065000000000     0          
O        O      0.500000000000     0.910300000000     0.125000000000     0          
T        Si     0.848200000000     0.561000000000     0.014150000000     0          
T        Si     0.847900000000     0.689400000000     0.064850000000     0          
T        Si     0.851800000000     0.764000000000     0.030250000000     0          
T        Si     0.908500000000     0.518100000000     0.030150000000     0          
T        Si     0.901900000000     0.810800000000     0.013950000000     0          
T        Si     0.897550000000     0.863600000000     0.028250000000     0          
T        Si     0.902100000000     0.937600000000     0.064850000000     0          
T        Si     0.851600000000     0.891300000000     0.087200000000     0          
T        Si     0.844200000000     0.980700000000     0.086800000000     0          
T        Si     0.897800000000     0.607200000000     0.031650000000     0          
T        Si     0.899450000000     0.735100000000     0.086900000000     0          
T        Si     0.851150000000     0.637600000000     0.086400000000     0          
T        Si     0.500000000000     0.918300000000     0.279500000000     0          
T        Si     0.500000000000     0.754200000000     0.470350000000     0          
T        Si     0.500000000000     0.791200000000     0.219600000000     0          
T        Si     0.500000000000     0.880700000000     0.029750000000     0          
T        Si     0.500000000000     0.917400000000     0.086650000000     0          
T        Si     0.500000000000     0.791400000000     0.336850000000     0          
T        Si     0.500000000000     0.881200000000     0.337100000000     0          
T        Si     0.500000000000     0.600200000000     0.314100000000     0          
T        Si     0.500000000000     0.543600000000     0.313100000000     0          
T        Si     0.500000000000     0.544200000000     0.012900000000     0          
T        Si     0.500000000000     0.600700000000     0.011900000000     0          
T        Si     0.500000000000     0.753500000000     0.086550000000     0          
O        O      0.953900000000     0.065500000000     0.027800000000     0          
O        O      0.500000000000     0.100000000000     0.499200000000     0          
O        O      0.500000000000     0.095900000000     0.063850000000     0          
O        O      0.545950000000     0.134400000000     0.080050000000     0          
O        O      0.500000000000     0.110500000000     0.125000000000     0          
O        O      0.500000000000     0.216300000000     0.125000000000     0          
O        O      0.953950000000     0.193200000000     0.079350000000     0          
O        O      0.500000000000     0.231800000000     0.064150000000     0          
O        O      0.500000000000     0.227300000000     0.250350000000     0          
O        O      0.954250000000     0.262200000000     0.222550000000     0          
O        O      0.500000000000     0.428100000000     0.065850000000     0          
O        O      0.545950000000     0.389400000000     0.081800000000     0          
O        O      0.500000000000     0.391400000000     0.026200000000     0          
O        O      0.500000000000     0.464200000000     0.025000000000     0          
O        O      0.954250000000     0.466900000000     0.080950000000     0          
O        O      0.636450000000     0.465400000000     0.274150000000     0          
O        O      0.651550000000     0.436300000000     0.224700000000     0          
O        O      0.615900000000     0.420200000000     0.279850000000     0          
O        O      0.633550000000     0.336500000000     0.324000000000     0          
O        O      0.620650000000     0.382100000000     0.316000000000     0          
O        O      0.637400000000     0.365200000000     0.375000000000     0          
O        O      0.616700000000     0.291600000000     0.330550000000     0          
O        O      0.653100000000     0.307700000000     0.275450000000     0          
O        O      0.632300000000     0.208800000000     0.279400000000     0          
O        O      0.631650000000     0.247500000000     0.314550000000     0          
O        O      0.636350000000     0.114900000000     0.375000000000     0          
O        O      0.621450000000     0.126500000000     0.312900000000     0          
O        O      0.632800000000     0.081900000000     0.329750000000     0          
O        O      0.613350000000     0.036500000000     0.326750000000     0          
O        O      0.653550000000     0.996000000000     0.314300000000     0          
O        O      0.651100000000     0.012100000000     0.375000000000     0          
O        O      0.545800000000     0.465400000000     0.281700000000     0          
O        O      0.585800000000     0.500000000000     0.250000000000     0          
O        O      0.546300000000     0.389400000000     0.279750000000     0          
O        O      0.626450000000     0.379100000000     0.251400000000     0          
O        O      0.546000000000     0.261700000000     0.328100000000     0          
O        O      0.608850000000     0.258200000000     0.375000000000     0          
O        O      0.546050000000     0.192500000000     0.278350000000     0          
O        O      0.617800000000     0.163500000000     0.273450000000     0          
O        O      0.546200000000     0.135400000000     0.277100000000     0          
O        O      0.545850000000     0.067300000000     0.328300000000     0          
O        O      0.500000000000     0.427500000000     0.264300000000     0          
O        O      0.500000000000     0.239600000000     0.375000000000     0          
O        O      0.500000000000     0.222800000000     0.314850000000     0          
O        O      0.500000000000     0.106400000000     0.315000000000     0          
O        O      0.500000000000     0.089700000000     0.375000000000     0          
T        Si     0.651800000000     0.439000000000     0.264150000000     0          
T        Si     0.652100000000     0.310600000000     0.314850000000     0          
T        Si     0.648200000000     0.236000000000     0.280250000000     0          
T        Si     0.591500000000     0.481900000000     0.280150000000     0          
T        Si     0.598100000000     0.189200000000     0.263950000000     0          
T        Si     0.602450000000     0.136400000000     0.278250000000     0          
T        Si     0.597900000000     0.062400000000     0.314850000000     0          
T        Si     0.648400000000     0.108700000000     0.337200000000     0          
T        Si     0.655800000000     0.019300000000     0.336800000000     0          
T        Si     0.602200000000     0.392800000000     0.281650000000     0          
T        Si     0.600550000000     0.264900000000     0.336900000000     0          
T        Si     0.648850000000     0.362400000000     0.336400000000     0          
T        Si     0.500000000000     0.081700000000     0.029500000000     0          
T        Si     0.500000000000     0.245800000000     0.220350000000     0          
T        Si     0.500000000000     0.208800000000     0.469600000000     0          
T        Si     0.500000000000     0.119300000000     0.279750000000     0          
T        Si     0.500000000000     0.082600000000     0.336650000000     0          
T        Si     0.500000000000     0.208600000000     0.086850000000     0          
T        Si     0.500000000000     0.118800000000     0.087100000000     0          
T        Si     0.500000000000     0.399800000000     0.064100000000     0          
T        Si     0.500000000000     0.456400000000     0.063100000000     0          
T        Si     0.500000000000     0.455800000000     0.262900000000     0          
T        Si     0.500000000000     0.399300000000     0.261900000000     0          
T        Si     0.500000000000     0.246500000000     0.336550000000     0          
O        O      0.546100000000     0.065500000000     0.222200000000     0          
O        O      0.500000000000     0.100000000000     0.250800000000     0          
O        O      0.500000000000     0.095900000000     0.186150000000     0          
O        O      0.954050000000     0.134400000000     0.169950000000     0          
O        O      0.546050000000     0.193200000000     0.170650000000     0          
O        O      0.500000000000     0.231800000000     0.185850000000     0          
O        O      0.500000000000     0.227300000000     0.499650000000     0          
O        O      0.545750000000     0.262200000000     0.027450000000     0          
O        O      0.500000000000     0.428100000000     0.184150000000     0          
O        O      0.954050000000     0.389400000000     0.168200000000     0          
O        O      0.500000000000     0.391400000000     0.223800000000     0          
O        O      0.500000000000     0.464200000000     0.225000000000     0          
O        O      0.545750000000     0.466900000000     0.169050000000     0          
O        O      0.863550000000     0.465400000000     0.475850000000     0          
O        O      0.848450000000     0.436300000000     0.025300000000     0          
O        O      0.884100000000     0.420200000000     0.470150000000     0          
O        O      0.866450000000     0.336500000000     0.426000000000     0          
O        O      0.879350000000     0.382100000000     0.434000000000     0          
O        O      0.862600000000     0.365200000000     0.375000000000     0          
O        O      0.883300000000     0.291600000000     0.419450000000     0          
O        O      0.846900000000     0.307700000000     0.474550000000     0          
O        O      0.867700000000     0.208800000000     0.470600000000     0          
O        O      0.868350000000     0.247500000000     0.435450000000     0          
O        O      0.863650000000     0.114900000000     0.375000000000     0          
O        O      0.878550000000     0.126500000000     0.437100000000     0          
O        O      0.867200000000     0.081900000000     0.420250000000     0          
O        O      0.886650000000     0.036500000000     0.423250000000     0          
O        O      0.846450000000     0.996000000000     0.435700000000     0          
O        O      0.848900000000     0.012100000000     0.375000000000     0          
O        O      0.954200000000     0.465400000000     0.468300000000     0          
O        O      0.953700000000     0.389400000000     0.470250000000     0          
O        O      0.873550000000     0.379100000000     0.498600000000     0          
O        O      0.954000000000     0.261700000000     0.421900000000     0          
O        O      0.891150000000     0.258200000000     0.375000000000     0          
O        O      0.953950000000     0.192500000000     0.471650000000     0          
O        O      0.882200000000     0.163500000000     0.476550000000     0          
O        O      0.953800000000     0.135400000000     0.472900000000     0          
O        O      0.954150000000     0.067300000000     0.421700000000     0          
O        O      0.500000000000     0.427500000000     0.485700000000     0          
O        O      0.500000000000     0.222800000000     0.435150000000     0          
O        O      0.500000000000     0.106400000000     0.435000000000     0          
T        Si     0.848200000000     0.439000000000     0.485850000000     0          
T        Si     0.847900000000     0.310600000000     0.435150000000     0          
T        Si     0.851800000000     0.236000000000     0.469750000000     0          
T        Si     0.908500000000     0.481900000000     0.469850000000     0          
T        Si     0.901900000000     0.189200000000     0.486050000000     0          
T        Si     0.897550000000     0.136400000000     0.471750000000     0          
T        Si     0.902100000000     0.062400000000     0.435150000000     0          
T        Si     0.851600000000     0.108700000000     0.412800000000     0          
T        Si     0.844200000000     0.019300000000     0.413200000000     0          
T        Si     0.897800000000     0.392800000000     0.468350000000     0          
T        Si     0.899450000000     0.264900000000     0.413100000000     0          
T        Si     0.851150000000     0.362400000000     0.413600000000     0          
T        Si     0.500000000000     0.081700000000     0.220500000000     0          
T        Si     0.500000000000     0.245800000000     0.029650000000     0          
T        Si     0.500000000000     0.208800000000     0.280400000000     0          
T        Si     0.500000000000     0.119300000000     0.470250000000     0          
T        Si     0.500000000000     0.082600000000     0.413350000000     0          
T        Si     0.500000000000     0.208600000000     0.163150000000     0          
T        Si     0.500000000000     0.118800000000     0.162900000000     0          
T        Si     0.500000000000     0.399800000000     0.185900000000     0          
T        Si     0.500000000000     0.456400000000     0.186900000000     0          
T        Si     0.500000000000     0.455800000000     0.487100000000     0          
T        Si     0.500000000000     0.399300000000     0.488100000000     0          
T        Si     0.500000000000     0.246500000000     0.413450000000     0          
O        O      0.953900000000     0.934500000000     0.472200000000     0          
O        O      0.500000000000     0.900000000000     0.000800000000     0          
O        O      0.500000000000     0.904100000000     0.436150000000     0          
O        O      0.545950000000     0.865600000000     0.419950000000     0          
O        O      0.953950000000     0.806800000000     0.420650000000     0          
O        O      0.500000000000     0.768200000000     0.435850000000     0          
O        O      0.500000000000     0.772700000000     0.249650000000     0          
O        O      0.954250000000     0.737800000000     0.277450000000     0          
O        O      0.500000000000     0.571900000000     0.434150000000     0          
O        O      0.545950000000     0.610600000000     0.418200000000     0          
O        O      0.500000000000     0.608600000000     0.473800000000     0          
O        O      0.500000000000     0.535800000000     0.475000000000     0          
O        O      0.954250000000     0.533100000000     0.419050000000     0          
O        O      0.636450000000     0.534600000000     0.225850000000     0          
O        O      0.651550000000     0.563700000000     0.275300000000     0          
O        O      0.615900000000     0.579800000000     0.220150000000     0          
O        O      0.633550000000     0.663500000000     0.176000000000     0          
O        O      0.620650000000     0.617900000000     0.184000000000     0          
O        O      0.637400000000     0.634800000000     0.125000000000     0          
O        O      0.616700000000     0.708400000000     0.169450000000     0          
O        O      0.653100000000     0.692300000000     0.224550000000     0          
O        O      0.632300000000     0.791200000000     0.220600000000     0          
O        O      0.631650000000     0.752500000000     0.185450000000     0          
O        O      0.636350000000     0.885100000000     0.125000000000     0          
O        O      0.621450000000     0.873500000000     0.187100000000     0          
O        O      0.632800000000     0.918100000000     0.170250000000     0          
O        O      0.613350000000     0.963500000000     0.173250000000     0          
O        O      0.653550000000     0.004000000000     0.185700000000     0          
O        O      0.651100000000     0.987900000000     0.125000000000     0          
O        O      0.545800000000     0.534600000000     0.218300000000     0          
O        O      0.546300000000     0.610600000000     0.220250000000     0          
O        O      0.626450000000     0.620900000000     0.248600000000     0          
O        O      0.546000000000     0.738300000000     0.171900000000     0          
O        O      0.608850000000     0.741800000000     0.125000000000     0          
O        O      0.546050000000     0.807500000000     0.221650000000     0          
O        O      0.617800000000     0.836500000000     0.226550000000     0          
O        O      0.546200000000     0.864600000000     0.222900000000     0          
O        O      0.545850000000     0.932700000000     0.171700000000     0          
O        O      0.500000000000     0.572500000000     0.235700000000     0          
O        O      0.500000000000     0.777200000000     0.185150000000     0          
O        O      0.500000000000     0.893600000000     0.185000000000     0          
T        Si     0.651800000000     0.561000000000     0.235850000000     0          
T        Si     0.652100000000     0.689400000000     0.185150000000     0          
T        Si     0.648200000000     0.764000000000     0.219750000000     0          
T        Si     0.591500000000     0.518100000000     0.219850000000     0          
T        Si     0.598100000000     0.810800000000     0.236050000000     0          
T        Si     0.602450000000     0.863600000000     0.221750000000     0          
T        Si     0.597900000000     0.937600000000     0.185150000000     0          
T        Si     0.648400000000     0.891300000000     0.162800000000     0          
T        Si     0.655800000000     0.980700000000     0.163200000000     0          
T        Si     0.602200000000     0.607200000000     0.218350000000     0          
T        Si     0.600550000000     0.735100000000     0.163100000000     0          
T        Si     0.648850000000     0.637600000000     0.163600000000     0          
T        Si     0.500000000000     0.918300000000     0.470500000000     0          
T        Si     0.500000000000     0.754200000000     0.279650000000     0          
T        Si     0.500000000000     0.791200000000     0.030400000000     0          
T        Si     0.500000000000     0.880700000000     0.220250000000     0          
T        Si     0.500000000000     0.917400000000     0.163350000000     0          
T        Si     0.500000000000     0.791400000000     0.413150000000     0          
T        Si     0.500000000000     0.881200000000     0.412900000000     0          
T        Si     0.500000000000     0.600200000000     0.435900000000     0          
T        Si     0.500000000000     0.543600000000     0.436900000000     0          
T        Si     0.500000000000     0.544200000000     0.237100000000     0          
T        Si     0.500000000000     0.600700000000     0.238100000000     0          
T        Si     0.500000000000     0.753500000000     0.163450000000     0          
O        O      0.953900000000     0.065500000000     0.222200000000     0          
O        O      0.545950000000     0.134400000000     0.169950000000     0          
O        O      0.953950000000     0.193200000000     0.170650000000     0          
O        O      0.954250000000     0.262200000000     0.027450000000     0          
O        O      0.545950000000     0.389400000000     0.168200000000     0          
O        O      0.954250000000     0.466900000000     0.169050000000     0          
O        O      0.636450000000     0.465400000000     0.475850000000     0          
O        O      0.651550000000     0.436300000000     0.025300000000     0          
O        O      0.615900000000     0.420200000000     0.470150000000     0          
O        O      0.633550000000     0.336500000000     0.426000000000     0          
O        O      0.620650000000     0.382100000000     0.434000000000     0          
O        O      0.616700000000     0.291600000000     0.419450000000     0          
O        O      0.653100000000     0.307700000000     0.474550000000     0          
O        O      0.632300000000     0.208800000000     0.470600000000     0          
O        O      0.631650000000     0.247500000000     0.435450000000     0          
O        O      0.621450000000     0.126500000000     0.437100000000     0          
O        O      0.632800000000     0.081900000000     0.420250000000     0          
O        O      0.613350000000     0.036500000000     0.423250000000     0          
O        O      0.653550000000     0.996000000000     0.435700000000     0          
O        O      0.545800000000     0.465400000000     0.468300000000     0          
O        O      0.585800000000     0.500000000000     0.000000000000     0          
O        O      0.546300000000     0.389400000000     0.470250000000     0          
O        O      0.626450000000     0.379100000000     0.498600000000     0          
O        O      0.546000000000     0.261700000000     0.421900000000     0          
O        O      0.546050000000     0.192500000000     0.471650000000     0          
O        O      0.617800000000     0.163500000000     0.476550000000     0          
O        O      0.546200000000     0.135400000000     0.472900000000     0          
O        O      0.545850000000     0.067300000000     0.421700000000     0          
T        Si     0.651800000000     0.439000000000     0.485850000000     0          
T        Si     0.652100000000     0.310600000000     0.435150000000     0          
T        Si     0.648200000000     0.236000000000     0.469750000000     0          
T        Si     0.591500000000     0.481900000000     0.469850000000     0          
T        Si     0.598100000000     0.189200000000     0.486050000000     0          
T        Si     0.602450000000     0.136400000000     0.471750000000     0          
T        Si     0.597900000000     0.062400000000     0.435150000000     0          
T        Si     0.648400000000     0.108700000000     0.412800000000     0          
T        Si     0.655800000000     0.019300000000     0.413200000000     0          
T        Si     0.602200000000     0.392800000000     0.468350000000     0          
T        Si     0.600550000000     0.264900000000     0.413100000000     0          
T        Si     0.648850000000     0.362400000000     0.413600000000     0          
O        O      0.546100000000     0.934500000000     0.472200000000     0          
O        O      0.954050000000     0.865600000000     0.419950000000     0          
O        O      0.546050000000     0.806800000000     0.420650000000     0          
O        O      0.545750000000     0.737800000000     0.277450000000     0          
O        O      0.954050000000     0.610600000000     0.418200000000     0          
O        O      0.545750000000     0.533100000000     0.419050000000     0          
O        O      0.863550000000     0.534600000000     0.225850000000     0          
O        O      0.848450000000     0.563700000000     0.275300000000     0          
O        O      0.884100000000     0.579800000000     0.220150000000     0          
O        O      0.866450000000     0.663500000000     0.176000000000     0          
O        O      0.879350000000     0.617900000000     0.184000000000     0          
O        O      0.883300000000     0.708400000000     0.169450000000     0          
O        O      0.846900000000     0.692300000000     0.224550000000     0          
O        O      0.867700000000     0.791200000000     0.220600000000     0          
O        O      0.868350000000     0.752500000000     0.185450000000     0          
O        O      0.878550000000     0.873500000000     0.187100000000     0          
O        O      0.867200000000     0.918100000000     0.170250000000     0          
O        O      0.886650000000     0.963500000000     0.173250000000     0          
O        O      0.846450000000     0.004000000000     0.185700000000     0          
O        O      0.954200000000     0.534600000000     0.218300000000     0          
O        O      0.914200000000     0.500000000000     0.250000000000     0          
O        O      0.953700000000     0.610600000000     0.220250000000     0          
O        O      0.873550000000     0.620900000000     0.248600000000     0          
O        O      0.954000000000     0.738300000000     0.171900000000     0          
O        O      0.953950000000     0.807500000000     0.221650000000     0          
O        O      0.882200000000     0.836500000000     0.226550000000     0          
O        O      0.953800000000     0.864600000000     0.222900000000     0          
O        O      0.954150000000     0.932700000000     0.171700000000     0          
T        Si     0.848200000000     0.561000000000     0.235850000000     0          
T        Si     0.847900000000     0.689400000000     0.185150000000     0          
T        Si     0.851800000000     0.764000000000     0.219750000000     0          
T        Si     0.908500000000     0.518100000000     0.219850000000     0          
T        Si     0.901900000000     0.810800000000     0.236050000000     0          
T        Si     0.897550000000     0.863600000000     0.221750000000     0          
T        Si     0.902100000000     0.937600000000     0.185150000000     0          
T        Si     0.851600000000     0.891300000000     0.162800000000     0          
T        Si     0.844200000000     0.980700000000     0.163200000000     0          
T        Si     0.897800000000     0.607200000000     0.218350000000     0          
T        Si     0.899450000000     0.735100000000     0.163100000000     0          
T        Si     0.851150000000     0.637600000000     0.163600000000     0          
O        O      0.953900000000     0.934500000000     0.277800000000     0          
O        O      0.545950000000     0.865600000000     0.330050000000     0          
O        O      0.953950000000     0.806800000000     0.329350000000     0          
O        O      0.954250000000     0.737800000000     0.472550000000     0          
O        O      0.545950000000     0.610600000000     0.331800000000     0          
O        O      0.954250000000     0.533100000000     0.330950000000     0          
O        O      0.636450000000     0.534600000000     0.024150000000     0          
O        O      0.651550000000     0.563700000000     0.474700000000     0          
O        O      0.615900000000     0.579800000000     0.029850000000     0          
O        O      0.633550000000     0.663500000000     0.074000000000     0          
O        O      0.620650000000     0.617900000000     0.066000000000     0          
O        O      0.616700000000     0.708400000000     0.080550000000     0          
O        O      0.653100000000     0.692300000000     0.025450000000     0          
O        O      0.632300000000     0.791200000000     0.029400000000     0          
O        O      0.631650000000     0.752500000000     0.064550000000     0          
O        O      0.621450000000     0.873500000000     0.062900000000     0          
O        O      0.632800000000     0.918100000000     0.079750000000     0          
O        O      0.613350000000     0.963500000000     0.076750000000     0          
O        O      0.653550000000     0.004000000000     0.064300000000     0          
O        O      0.545800000000     0.534600000000     0.031700000000     0          
O        O      0.546300000000     0.610600000000     0.029750000000     0          
O        O      0.626450000000     0.620900000000     0.001400000000     0          
O        O      0.546000000000     0.738300000000     0.078100000000     0          
O        O      0.546050000000     0.807500000000     0.028350000000     0          
O        O      0.617800000000     0.836500000000     0.023450000000     0          
O        O      0.546200000000     0.864600000000     0.027100000000     0          
O        O      0.545850000000     0.932700000000     0.078300000000     0          
T        Si     0.651800000000     0.561000000000     0.014150000000     0          
T        Si     0.652100000000     0.689400000000     0.064850000000     0          
T        Si     0.648200000000     0.764000000000     0.030250000000     0          
T        Si     0.591500000000     0.518100000000     0.030150000000     0          
T        Si     0.598100000000     0.810800000000     0.013950000000     0          
T        Si     0.602450000000     0.863600000000     0.028250000000     0          
T        Si     0.597900000000     0.937600000000     0.064850000000     0          
T        Si     0.648400000000     0.891300000000     0.087200000000     0          
T        Si     0.655800000000     0.980700000000     0.086800000000     0          
T        Si     0.602200000000     0.607200000000     0.031650000000     0          
T        Si     0.600550000000     0.735100000000     0.086900000000     0          
T        Si     0.648850000000     0.637600000000     0.086400000000     0          
O        O      0.546100000000     0.065500000000     0.027800000000     0          
O        O      0.954050000000     0.134400000000     0.080050000000     0          
O        O      0.546050000000     0.193200000000     0.079350000000     0          
O        O      0.545750000000     0.262200000000     0.222550000000     0          
O        O      0.954050000000     0.389400000000     0.081800000000     0          
O        O      0.545750000000     0.466900000000     0.080950000000     0          
O        O      0.863550000000     0.465400000000     0.274150000000     0          
O        O      0.848450000000     0.436300000000     0.224700000000     0          
O        O      0.884100000000     0.420200000000     0.279850000000     0          
O        O      0.866450000000     0.336500000000     0.324000000000     0          
O        O      0.879350000000     0.382100000000     0.316000000000     0          
O        O      0.883300000000     0.291600000000     0.330550000000     0          
O        O      0.846900000000     0.307700000000     0.275450000000     0          
O        O      0.867700000000     0.208800000000     0.279400000000     0          
O        O      0.868350000000     0.247500000000     0.314550000000     0          
O        O      0.878550000000     0.126500000000     0.312900000000     0          
O        O      0.867200000000     0.081900000000     0.329750000000     0          
O        O      0.886650000000     0.036500000000     0.326750000000     0          
O        O      0.846450000000     0.996000000000     0.314300000000     0          
O        O      0.954200000000     0.465400000000     0.281700000000     0          
O        O      0.953700000000     0.389400000000     0.279750000000     0          
O        O      0.873550000000     0.379100000000     0.251400000000     0          
O        O      0.954000000000     0.261700000000     0.328100000000     0          
O        O      0.953950000000     0.192500000000     0.278350000000     0          
O        O      0.882200000000     0.163500000000     0.273450000000     0          
O        O      0.953800000000     0.135400000000     0.277100000000     0          
O        O      0.954150000000     0.067300000000     0.328300000000     0          
T        Si     0.848200000000     0.439000000000     0.264150000000     0          
T        Si     0.847900000000     0.310600000000     0.314850000000     0          
T        Si     0.851800000000     0.236000000000     0.280250000000     0          
T        Si     0.908500000000     0.481900000000     0.280150000000     0          
T        Si     0.901900000000     0.189200000000     0.263950000000     0          
T        Si     0.897550000000     0.136400000000     0.278250000000     0          
T        Si     0.902100000000     0.062400000000     0.314850000000     0          
T        Si     0.851600000000     0.108700000000     0.337200000000     0          
T        Si     0.844200000000     0.019300000000     0.336800000000     0          
T        Si     0.897800000000     0.392800000000     0.281650000000     0          
T        Si     0.899450000000     0.264900000000     0.336900000000     0          
T        Si     0.851150000000     0.362400000000     0.336400000000     0          
O        O      0.796100000000     0.434500000000     0.777800000000     0          
O        O      0.750000000000     0.400000000000     0.749200000000     0          
O        O      0.750000000000     0.404100000000     0.813850000000     0          
O        O      0.704050000000     0.365600000000     0.830050000000     0          
O        O      0.750000000000     0.389500000000     0.875000000000     0          
O        O      0.750000000000     0.283700000000     0.875000000000     0          
O        O      0.796050000000     0.306800000000     0.829350000000     0          
O        O      0.750000000000     0.268200000000     0.814150000000     0          
O        O      0.750000000000     0.272700000000     0.500350000000     0          
O        O      0.795750000000     0.237800000000     0.972550000000     0          
O        O      0.750000000000     0.071900000000     0.815850000000     0          
O        O      0.704050000000     0.110600000000     0.831800000000     0          
O        O      0.750000000000     0.108600000000     0.776200000000     0          
O        O      0.750000000000     0.035800000000     0.775000000000     0          
O        O      0.795750000000     0.033100000000     0.830950000000     0          
O        O      0.613550000000     0.034600000000     0.524150000000     0          
O        O      0.598450000000     0.063700000000     0.974700000000     0          
O        O      0.634100000000     0.079800000000     0.529850000000     0          
O        O      0.616450000000     0.163500000000     0.574000000000     0          
O        O      0.629350000000     0.117900000000     0.566000000000     0          
O        O      0.612600000000     0.134800000000     0.625000000000     0          
O        O      0.633300000000     0.208400000000     0.580550000000     0          
O        O      0.596900000000     0.192300000000     0.525450000000     0          
O        O      0.617700000000     0.291200000000     0.529400000000     0          
O        O      0.625000000000     0.250000000000     0.500000000000     0          
O        O      0.618350000000     0.252500000000     0.564550000000     0          
O        O      0.613650000000     0.385100000000     0.625000000000     0          
O        O      0.628550000000     0.373500000000     0.562900000000     0          
O        O      0.617200000000     0.418100000000     0.579750000000     0          
O        O      0.636650000000     0.463500000000     0.576750000000     0          
O        O      0.596450000000     0.504000000000     0.564300000000     0          
O        O      0.598900000000     0.487900000000     0.625000000000     0          
O        O      0.704200000000     0.034600000000     0.531700000000     0          
O        O      0.664200000000     0.000000000000     0.500000000000     0          
O        O      0.703700000000     0.110600000000     0.529750000000     0          
O        O      0.623550000000     0.120900000000     0.501400000000     0          
O        O      0.704000000000     0.238300000000     0.578100000000     0          
O        O      0.641150000000     0.241800000000     0.625000000000     0          
O        O      0.703950000000     0.307500000000     0.528350000000     0          
O        O      0.632200000000     0.336500000000     0.523450000000     0          
O        O      0.703800000000     0.364600000000     0.527100000000     0          
O        O      0.704150000000     0.432700000000     0.578300000000     0          
O        O      0.750000000000     0.072500000000     0.514300000000     0          
O        O      0.750000000000     0.260400000000     0.625000000000     0          
O        O      0.750000000000     0.277200000000     0.564850000000     0          
O        O      0.750000000000     0.393600000000     0.565000000000     0          
O        O      0.750000000000     0.410300000000     0.625000000000     0          
T        Si     0.598200000000     0.061000000000     0.514150000000     0          
T        Si     0.597900000000     0.189400000000     0.564850000000     0          
T        Si     0.601800000000     0.264000000000     0.530250000000     0          
T        Si     0.658500000000     0.018100000000     0.530150000000     0          
T        Si     0.651900000000     0.310800000000     0.513950000000     0          
T        Si     0.647550000000     0.363600000000     0.528250000000     0          
T        Si     0.652100000000     0.437600000000     0.564850000000     0          
T        Si     0.601600000000     0.391300000000     0.587200000000     0          
T        Si     0.594200000000     0.480700000000     0.586800000000     0          
T        Si     0.647800000000     0.107200000000     0.531650000000     0          
T        Si     0.649450000000     0.235100000000     0.586900000000     0          
T        Si     0.601150000000     0.137600000000     0.586400000000     0          
T        Si     0.750000000000     0.418300000000     0.779500000000     0          
T        Si     0.750000000000     0.254200000000     0.970350000000     0          
T        Si     0.750000000000     0.291200000000     0.719600000000     0          
T        Si     0.750000000000     0.380700000000     0.529750000000     0          
T        Si     0.750000000000     0.417400000000     0.586650000000     0          
T        Si     0.750000000000     0.291400000000     0.836850000000     0          
T        Si     0.750000000000     0.381200000000     0.837100000000     0          
T        Si     0.750000000000     0.100200000000     0.814100000000     0          
T        Si     0.750000000000     0.043600000000     0.813100000000     0          
T        Si     0.750000000000     0.044200000000     0.512900000000     0          
T        Si     0.750000000000     0.100700000000     0.511900000000     0          
T        Si     0.750000000000     0.253500000000     0.586550000000     0          
O        O      0.703900000000     0.565500000000     0.527800000000     0          
O        O      0.750000000000     0.600000000000     0.999200000000     0          
O        O      0.750000000000     0.595900000000     0.563850000000     0          
O        O      0.795950000000     0.634400000000     0.580050000000     0          
O        O      0.750000000000     0.610500000000     0.625000000000     0          
O        O      0.750000000000     0.716300000000     0.625000000000     0          
O        O      0.703950000000     0.693200000000     0.579350000000     0          
O        O      0.750000000000     0.731800000000     0.564150000000     0          
O        O      0.750000000000     0.727300000000     0.750350000000     0          
O        O      0.704250000000     0.762200000000     0.722550000000     0          
O        O      0.750000000000     0.928100000000     0.565850000000     0          
O        O      0.795950000000     0.889400000000     0.581800000000     0          
O        O      0.750000000000     0.891400000000     0.526200000000     0          
O        O      0.750000000000     0.964200000000     0.525000000000     0          
O        O      0.704250000000     0.966900000000     0.580950000000     0          
O        O      0.886450000000     0.965400000000     0.774150000000     0          
O        O      0.901550000000     0.936300000000     0.724700000000     0          
O        O      0.865900000000     0.920200000000     0.779850000000     0          
O        O      0.883550000000     0.836500000000     0.824000000000     0          
O        O      0.870650000000     0.882100000000     0.816000000000     0          
O        O      0.887400000000     0.865200000000     0.875000000000     0          
O        O      0.866700000000     0.791600000000     0.830550000000     0          
O        O      0.903100000000     0.807700000000     0.775450000000     0          
O        O      0.882300000000     0.708800000000     0.779400000000     0          
O        O      0.875000000000     0.750000000000     0.750000000000     0          
O        O      0.881650000000     0.747500000000     0.814550000000     0          
O        O      0.886350000000     0.614900000000     0.875000000000     0          
O        O      0.871450000000     0.626500000000     0.812900000000     0          
O        O      0.882800000000     0.581900000000     0.829750000000     0          
O        O      0.863350000000     0.536500000000     0.826750000000     0          
O        O      0.903550000000     0.496000000000     0.814300000000     0          
O        O      0.901100000000     0.512100000000     0.875000000000     0          
O        O      0.795800000000     0.965400000000     0.781700000000     0          
O        O      0.835800000000     0.000000000000     0.750000000000     0          
O        O      0.796300000000     0.889400000000     0.779750000000     0          
O        O      0.876450000000     0.879100000000     0.751400000000     0          
O        O      0.796000000000     0.761700000000     0.828100000000     0          
O        O      0.858850000000     0.758200000000     0.875000000000     0          
O        O      0.796050000000     0.692500000000     0.778350000000     0          
O        O      0.867800000000     0.663500000000     0.773450000000     0          
O        O      0.796200000000     0.635400000000     0.777100000000     0          
O        O      0.795850000000     0.567300000000     0.828300000000     0          
O        O      0.750000000000     0.927500000000     0.764300000000     0          
O        O      0.750000000000     0.739600000000     0.875000000000     0          
O        O      0.750000000000     0.722800000000     0.814850000000     0          
O        O      0.750000000000     0.606400000000     0.815000000000     0          
O        O      0.750000000000     0.589700000000     0.875000000000     0          
T        Si     0.901800000000     0.939000000000     0.764150000000     0          
T        Si     0.902100000000     0.810600000000     0.814850000000     0          
T        Si     0.898200000000     0.736000000000     0.780250000000     0          
T        Si     0.841500000000     0.981900000000     0.780150000000     0          
T        Si     0.848100000000     0.689200000000     0.763950000000     0          
T        Si     0.852450000000     0.636400000000     0.778250000000     0          
T        Si     0.847900000000     0.562400000000     0.814850000000     0          
T        Si     0.898400000000     0.608700000000     0.837200000000     0          
T        Si     0.905800000000     0.519300000000     0.836800000000     0          
T        Si     0.852200000000     0.892800000000     0.781650000000     0          
T        Si     0.850550000000     0.764900000000     0.836900000000     0          
T        Si     0.898850000000     0.862400000000     0.836400000000     0          
T        Si     0.750000000000     0.581700000000     0.529500000000     0          
T        Si     0.750000000000     0.745800000000     0.720350000000     0          
T        Si     0.750000000000     0.708800000000     0.969600000000     0          
T        Si     0.750000000000     0.619300000000     0.779750000000     0          
T        Si     0.750000000000     0.582600000000     0.836650000000     0          
T        Si     0.750000000000     0.708600000000     0.586850000000     0          
T        Si     0.750000000000     0.618800000000     0.587100000000     0          
T        Si     0.750000000000     0.899800000000     0.564100000000     0          
T        Si     0.750000000000     0.956400000000     0.563100000000     0          
T        Si     0.750000000000     0.955800000000     0.762900000000     0          
T        Si     0.750000000000     0.899300000000     0.761900000000     0          
T        Si     0.750000000000     0.746500000000     0.836550000000     0          
O        O      0.796100000000     0.565500000000     0.722200000000     0          
O        O      0.750000000000     0.600000000000     0.750800000000     0          
O        O      0.750000000000     0.595900000000     0.686150000000     0          
O        O      0.704050000000     0.634400000000     0.669950000000     0          
O        O      0.796050000000     0.693200000000     0.670650000000     0          
O        O      0.750000000000     0.731800000000     0.685850000000     0          
O        O      0.750000000000     0.727300000000     0.999650000000     0          
O        O      0.795750000000     0.762200000000     0.527450000000     0          
O        O      0.750000000000     0.928100000000     0.684150000000     0          
O        O      0.704050000000     0.889400000000     0.668200000000     0          
O        O      0.750000000000     0.891400000000     0.723800000000     0          
O        O      0.750000000000     0.964200000000     0.725000000000     0          
O        O      0.795750000000     0.966900000000     0.669050000000     0          
O        O      0.613550000000     0.965400000000     0.975850000000     0          
O        O      0.598450000000     0.936300000000     0.525300000000     0          
O        O      0.634100000000     0.920200000000     0.970150000000     0          
O        O      0.616450000000     0.836500000000     0.926000000000     0          
O        O      0.629350000000     0.882100000000     0.934000000000     0          
O        O      0.612600000000     0.865200000000     0.875000000000     0          
O        O      0.633300000000     0.791600000000     0.919450000000     0          
O        O      0.596900000000     0.807700000000     0.974550000000     0          
O        O      0.617700000000     0.708800000000     0.970600000000     0          
O        O      0.625000000000     0.750000000000     0.500000000000     0          
O        O      0.618350000000     0.747500000000     0.935450000000     0          
O        O      0.613650000000     0.614900000000     0.875000000000     0          
O        O      0.628550000000     0.626500000000     0.937100000000     0          
O        O      0.617200000000     0.581900000000     0.920250000000     0          
O        O      0.636650000000     0.536500000000     0.923250000000     0          
O        O      0.596450000000     0.496000000000     0.935700000000     0          
O        O      0.598900000000     0.512100000000     0.875000000000     0          
O        O      0.704200000000     0.965400000000     0.968300000000     0          
O        O      0.703700000000     0.889400000000     0.970250000000     0          
O        O      0.623550000000     0.879100000000     0.998600000000     0          
O        O      0.704000000000     0.761700000000     0.921900000000     0          
O        O      0.641150000000     0.758200000000     0.875000000000     0          
O        O      0.703950000000     0.692500000000     0.971650000000     0          
O        O      0.632200000000     0.663500000000     0.976550000000     0          
O        O      0.703800000000     0.635400000000     0.972900000000     0          
O        O      0.704150000000     0.567300000000     0.921700000000     0          
O        O      0.750000000000     0.927500000000     0.985700000000     0          
O        O      0.750000000000     0.722800000000     0.935150000000     0          
O        O      0.750000000000     0.606400000000     0.935000000000     0          
T        Si     0.598200000000     0.939000000000     0.985850000000     0          
T        Si     0.597900000000     0.810600000000     0.935150000000     0          
T        Si     0.601800000000     0.736000000000     0.969750000000     0          
T        Si     0.658500000000     0.981900000000     0.969850000000     0          
T        Si     0.651900000000     0.689200000000     0.986050000000     0          
T        Si     0.647550000000     0.636400000000     0.971750000000     0          
T        Si     0.652100000000     0.562400000000     0.935150000000     0          
T        Si     0.601600000000     0.608700000000     0.912800000000     0          
T        Si     0.594200000000     0.519300000000     0.913200000000     0          
T        Si     0.647800000000     0.892800000000     0.968350000000     0          
T        Si     0.649450000000     0.764900000000     0.913100000000     0          
T        Si     0.601150000000     0.862400000000     0.913600000000     0          
T        Si     0.750000000000     0.581700000000     0.720500000000     0          
T        Si     0.750000000000     0.745800000000     0.529650000000     0          
T        Si     0.750000000000     0.708800000000     0.780400000000     0          
T        Si     0.750000000000     0.619300000000     0.970250000000     0          
T        Si     0.750000000000     0.582600000000     0.913350000000     0          
T        Si     0.750000000000     0.708600000000     0.663150000000     0          
T        Si     0.750000000000     0.618800000000     0.662900000000     0          
T        Si     0.750000000000     0.899800000000     0.685900000000     0          
T        Si     0.750000000000     0.956400000000     0.686900000000     0          
T        Si     0.750000000000     0.955800000000     0.987100000000     0          
T        Si     0.750000000000     0.899300000000     0.988100000000     0          
T        Si     0.750000000000     0.746500000000     0.913450000000     0          
O        O      0.703900000000     0.434500000000     0.972200000000     0          
O        O      0.750000000000     0.400000000000     0.500800000000     0          
O        O      0.750000000000     0.404100000000     0.936150000000     0          
O        O      0.795950000000     0.365600000000     0.919950000000     0          
O        O      0.703950000000     0.306800000000     0.920650000000     0          
O        O      0.750000000000     0.268200000000     0.935850000000     0          
O        O      0.750000000000     0.272700000000     0.749650000000     0          
O        O      0.704250000000     0.237800000000     0.777450000000     0          
O        O      0.750000000000     0.071900000000     0.934150000000     0          
O        O      0.795950000000     0.110600000000     0.918200000000     0          
O        O      0.750000000000     0.108600000000     0.973800000000     0          
O        O      0.750000000000     0.035800000000     0.975000000000     0          
O        O      0.704250000000     0.033100000000     0.919050000000     0          
O        O      0.886450000000     0.034600000000     0.725850000000     0          
O        O      0.901550000000     0.063700000000     0.775300000000     0          
O        O      0.865900000000     0.079800000000     0.720150000000     0          
O        O      0.883550000000     0.163500000000     0.676000000000     0          
O        O      0.870650000000     0.117900000000     0.684000000000     0          
O        O      0.887400000000     0.134800000000     0.625000000000     0          
O        O      0.866700000000     0.208400000000     0.669450000000     0          
O        O      0.903100000000     0.192300000000     0.724550000000     0          
O        O      0.882300000000     0.291200000000     0.720600000000     0          
O        O      0.875000000000     0.250000000000     0.750000000000     0          
O        O      0.881650000000     0.252500000000     0.685450000000     0          
O        O      0.886350000000     0.385100000000     0.625000000000     0          
O        O      0.871450000000     0.373500000000     0.687100000000     0          
O        O      0.882800000000     0.418100000000     0.670250000000     0          
O        O      0.863350000000     0.463500000000     0.673250000000     0          
O        O      0.903550000000     0.504000000000     0.685700000000     0          
O        O      0.901100000000     0.487900000000     0.625000000000     0          
O        O      0.795800000000     0.034600000000     0.718300000000     0          
O        O      0.796300000000     0.110600000000     0.720250000000     0          
O        O      0.876450000000     0.120900000000     0.748600000000     0          
O        O      0.796000000000     0.238300000000     0.671900000000     0          
O        O      0.858850000000     0.241800000000     0.625000000000     0          
O        O      0.796050000000     0.307500000000     0.721650000000     0          
O        O      0.867800000000     0.336500000000     0.726550000000     0          
O        O      0.796200000000     0.364600000000     0.722900000000     0          
O        O      0.795850000000     0.432700000000     0.671700000000     0          
O        O      0.750000000000     0.072500000000     0.735700000000     0          
O        O      0.750000000000     0.277200000000     0.685150000000     0          
O        O      0.750000000000     0.393600000000     0.685000000000     0          
T        Si     0.901800000000     0.061000000000     0.735850000000     0          
T        Si     0.902100000000     0.189400000000     0.685150000000     0          
T        Si     0.898200000000     0.264000000000     0.719750000000     0          
T        Si     0.841500000000     0.018100000000     0.719850000000     0          
T        Si     0.848100000000     0.310800000000     0.736050000000     0          
T        Si     0.852450000000     0.363600000000     0.721750000000     0          
T        Si     0.847900000000     0.437600000000     0.685150000000     0          
T        Si     0.898400000000     0.391300000000     0.662800000000     0          
T        Si     0.905800000000     0.480700000000     0.663200000000     0          
T        Si     0.852200000000     0.107200000000     0.718350000000     0          
T        Si     0.850550000000     0.235100000000     0.663100000000     0          
T        Si     0.898850000000     0.137600000000     0.663600000000     0          
T        Si     0.750000000000     0.418300000000     0.970500000000     0          
T        Si     0.750000000000     0.254200000000     0.779650000000     0          
T        Si     0.750000000000     0.291200000000     0.530400000000     0          
T        Si     0.750000000000     0.380700000000     0.720250000000     0          
T        Si     0.750000000000     0.417400000000     0.663350000000     0          
T        Si     0.750000000000     0.291400000000     0.913150000000     0          
T        Si     0.750000000000     0.381200000000     0.912900000000     0          
T        Si     0.750000000000     0.100200000000     0.935900000000     0          
T        Si     0.750000000000     0.043600000000     0.936900000000     0          
T        Si     0.750000000000     0.044200000000     0.737100000000     0          
T        Si     0.750000000000     0.100700000000     0.738100000000     0          
T        Si     0.750000000000     0.253500000000     0.663450000000     0          
O        O      0.703900000000     0.565500000000     0.722200000000     0          
O        O      0.795950000000     0.634400000000     0.669950000000     0          
O        O      0.703950000000     0.693200000000     0.670650000000     0          
O        O      0.704250000000     0.762200000000     0.527450000000     0          
O        O      0.795950000000     0.889400000000     0.668200000000     0          
O        O      0.704250000000     0.966900000000     0.669050000000     0          
O        O      0.886450000000     0.965400000000     0.975850000000     0          
O        O      0.901550000000     0.936300000000     0.525300000000     0          
O        O      0.865900000000     0.920200000000     0.970150000000     0          
O        O      0.883550000000     0.836500000000     0.926000000000     0          
O        O      0.870650000000     0.882100000000     0.934000000000     0          
O        O      0.866700000000     0.791600000000     0.919450000000     0          
O        O      0.903100000000     0.807700000000     0.974550000000     0          
O        O      0.882300000000     0.708800000000     0.970600000000     0          
O        O      0.875000000000     0.750000000000     0.500000000000     0          
O        O      0.881650000000     0.747500000000     0.935450000000     0          
O        O      0.871450000000     0.626500000000     0.937100000000     0          
O        O      0.882800000000     0.581900000000     0.920250000000     0          
O        O      0.863350000000     0.536500000000     0.923250000000     0          
O        O      0.903550000000     0.496000000000     0.935700000000     0          
O        O      0.795800000000     0.965400000000     0.968300000000     0          
O        O      0.835800000000     0.000000000000     0.500000000000     0          
O        O      0.796300000000     0.889400000000     0.970250000000     0          
O        O      0.876450000000     0.879100000000     0.998600000000     0          
O        O      0.796000000000     0.761700000000     0.921900000000     0          
O        O      0.796050000000     0.692500000000     0.971650000000     0          
O        O      0.867800000000     0.663500000000     0.976550000000     0          
O        O      0.796200000000     0.635400000000     0.972900000000     0          
O        O      0.795850000000     0.567300000000     0.921700000000     0          
T        Si     0.901800000000     0.939000000000     0.985850000000     0          
T        Si     0.902100000000     0.810600000000     0.935150000000     0          
T        Si     0.898200000000     0.736000000000     0.969750000000     0          
T        Si     0.841500000000     0.981900000000     0.969850000000     0          
T        Si     0.848100000000     0.689200000000     0.986050000000     0          
T        Si     0.852450000000     0.636400000000     0.971750000000     0          
T        Si     0.847900000000     0.562400000000     0.935150000000     0          
T        Si     0.898400000000     0.608700000000     0.912800000000     0          
T        Si     0.905800000000     0.519300000000     0.913200000000     0          
T        Si     0.852200000000     0.892800000000     0.968350000000     0          
T        Si     0.850550000000     0.764900000000     0.913100000000     0          
T        Si     0.898850000000     0.862400000000     0.913600000000     0          
O        O      0.796100000000     0.434500000000     0.972200000000     0          
O        O      0.704050000000     0.365600000000     0.919950000000     0          
O        O      0.796050000000     0.306800000000     0.920650000000     0          
O        O      0.795750000000     0.237800000000     0.777450000000     0          
O        O      0.704050000000     0.110600000000     0.918200000000     0          
O        O      0.795750000000     0.033100000000     0.919050000000     0          
O        O      0.613550000000     0.034600000000     0.725850000000     0          
O        O      0.598450000000     0.063700000000     0.775300000000     0          
O        O      0.634100000000     0.079800000000     0.720150000000     0          
O        O      0.616450000000     0.163500000000     0.676000000000     0          
O        O      0.629350000000     0.117900000000     0.684000000000     0          
O        O      0.633300000000     0.208400000000     0.669450000000     0          
O        O      0.596900000000     0.192300000000     0.724550000000     0          
O        O      0.617700000000     0.291200000000     0.720600000000     0          
O        O      0.625000000000     0.250000000000     0.750000000000     0          
O        O      0.618350000000     0.252500000000     0.685450000000     0          
O        O      0.628550000000     0.373500000000     0.687100000000     0          
O        O      0.617200000000     0.418100000000     0.670250000000     0          
O        O      0.636650000000     0.463500000000     0.673250000000     0          
O        O      0.596450000000     0.504000000000     0.685700000000     0          
O        O      0.704200000000     0.034600000000     0.718300000000     0          
O        O      0.664200000000     0.000000000000     0.750000000000     0          
O        O      0.703700000000     0.110600000000     0.720250000000     0          
O        O      0.623550000000     0.120900000000     0.748600000000     0          
O        O      0.704000000000     0.238300000000     0.671900000000     0          
O        O      0.703950000000     0.307500000000     0.721650000000     0          
O        O      0.632200000000     0.336500000000     0.726550000000     0          
O        O      0.703800000000     0.364600000000     0.722900000000     0          
O        O      0.704150000000     0.432700000000     0.671700000000     0          
T        Si     0.598200000000     0.061000000000     0.735850000000     0          
T        Si     0.597900000000     0.189400000000     0.685150000000     0          
T        Si     0.601800000000     0.264000000000     0.719750000000     0          
T        Si     0.658500000000     0.018100000000     0.719850000000     0          
T        Si     0.651900000000     0.310800000000     0.736050000000     0          
T        Si     0.647550000000     0.363600000000     0.721750000000     0          
T        Si     0.652100000000     0.437600000000     0.685150000000     0          
T        Si     0.601600000000     0.391300000000     0.662800000000     0          
T        Si     0.594200000000     0.480700000000     0.663200000000     0          
T        Si     0.647800000000     0.107200000000     0.718350000000     0          
T        Si     0.649450000000     0.235100000000     0.663100000000     0          
T        Si     0.601150000000     0.137600000000     0.663600000000     0          
O        O      0.703900000000     0.434500000000     0.777800000000     0          
O        O      0.795950000000     0.365600000000     0.830050000000     0          
O        O      0.703950000000     0.306800000000     0.829350000000     0          
O        O      0.704250000000     0.237800000000     0.972550000000     0          
O        O      0.795950000000     0.110600000000     0.831800000000     0          
O        O      0.704250000000     0.033100000000     0.830950000000     0          
O        O      0.886450000000     0.034600000000     0.524150000000     0          
O        O      0.901550000000     0.063700000000     0.974700000000     0          
O        O      0.865900000000     0.079800000000     0.529850000000     0          
O        O      0.883550000000     0.163500000000     0.574000000000     0          
O        O      0.870650000000     0.117900000000     0.566000000000     0          
O        O      0.866700000000     0.208400000000     0.580550000000     0          
O        O      0.903100000000     0.192300000000     0.525450000000     0          
O        O      0.882300000000     0.291200000000     0.529400000000     0          
O        O      0.875000000000     0.250000000000     0.500000000000     0          
O        O      0.881650000000     0.252500000000     0.564550000000     0          
O        O      0.871450000000     0.373500000000     0.562900000000     0          
O        O      0.882800000000     0.418100000000     0.579750000000     0          
O        O      0.863350000000     0.463500000000     0.576750000000     0          
O        O      0.903550000000     0.504000000000     0.564300000000     0          
O        O      0.795800000000     0.034600000000     0.531700000000     0          
O        O      0.796300000000     0.110600000000     0.529750000000     0          
O        O      0.876450000000     0.120900000000     0.501400000000     0          
O        O      0.796000000000     0.238300000000     0.578100000000     0          
O        O      0.796050000000     0.307500000000     0.528350000000     0          
O        O      0.867800000000     0.336500000000     0.523450000000     0          
O        O      0.796200000000     0.364600000000     0.527100000000     0          
O        O      0.795850000000     0.432700000000     0.578300000000     0          
T        Si     0.901800000000     0.061000000000     0.514150000000     0          
T        Si     0.902100000000     0.189400000000     0.564850000000     0          
T        Si     0.898200000000     0.264000000000     0.530250000000     0          
T        Si     0.841500000000     0.018100000000     0.530150000000     0          
T        Si     0.848100000000     0.310800000000     0.513950000000     0          
T        Si     0.852450000000     0.363600000000     0.528250000000     0          
T        Si     0.847900000000     0.437600000000     0.564850000000     0          
T        Si     0.898400000000     0.391300000000     0.587200000000     0          
T        Si     0.905800000000     0.480700000000     0.586800000000     0          
T        Si     0.852200000000     0.107200000000     0.531650000000     0          
T        Si     0.850550000000     0.235100000000     0.586900000000     0          
T        Si     0.898850000000     0.137600000000     0.586400000000     0          
O        O      0.796100000000     0.565500000000     0.527800000000     0          
O        O      0.704050000000     0.634400000000     0.580050000000     0          
O        O      0.796050000000     0.693200000000     0.579350000000     0          
O        O      0.795750000000     0.762200000000     0.722550000000     0          
O        O      0.704050000000     0.889400000000     0.581800000000     0          
O        O      0.795750000000     0.966900000000     0.580950000000     0          
O        O      0.613550000000     0.965400000000     0.774150000000     0          
O        O      0.598450000000     0.936300000000     0.724700000000     0          
O        O      0.634100000000     0.920200000000     0.779850000000     0          
O        O      0.616450000000     0.836500000000     0.824000000000     0          
O        O      0.629350000000     0.882100000000     0.816000000000     0          
O        O      0.633300000000     0.791600000000     0.830550000000     0          
O        O      0.596900000000     0.807700000000     0.775450000000     0          
O        O      0.617700000000     0.708800000000     0.779400000000     0          
O        O      0.625000000000     0.750000000000     0.750000000000     0          
O        O      0.618350000000     0.747500000000     0.814550000000     0          
O        O      0.628550000000     0.626500000000     0.812900000000     0          
O        O      0.617200000000     0.581900000000     0.829750000000     0          
O        O      0.636650000000     0.536500000000     0.826750000000     0          
O        O      0.596450000000     0.496000000000     0.814300000000     0          
O        O      0.704200000000     0.965400000000     0.781700000000     0          
O        O      0.703700000000     0.889400000000     0.779750000000     0          
O        O      0.623550000000     0.879100000000     0.751400000000     0          
O        O      0.704000000000     0.761700000000     0.828100000000     0          
O        O      0.703950000000     0.692500000000     0.778350000000     0          
O        O      0.632200000000     0.663500000000     0.773450000000     0          
O        O      0.703800000000     0.635400000000     0.777100000000     0          
O        O      0.704150000000     0.567300000000     0.828300000000     0          
T        Si     0.598200000000     0.939000000000     0.764150000000     0          
T        Si     0.597900000000     0.810600000000     0.814850000000     0          
T        Si     0.601800000000     0.736000000000     0.780250000000     0          
T        Si     0.658500000000     0.981900000000     0.780150000000     0          
T        Si     0.651900000000     0.689200000000     0.763950000000     0          
T        Si     0.647550000000     0.636400000000     0.778250000000     0          
T        Si     0.652100000000     0.562400000000     0.814850000000     0          
T        Si     0.601600000000     0.608700000000     0.837200000000     0          
T        Si     0.594200000000     0.519300000000     0.836800000000     0          
T        Si     0.647800000000     0.892800000000     0.781650000000     0          
T        Si     0.649450000000     0.764900000000     0.836900000000     0          
T        Si     0.601150000000     0.862400000000     0.836400000000     0          
O        O      0.546100000000     0.934500000000     0.777800000000     0          
O        O      0.500000000000     0.900000000000     0.749200000000     0          
O        O      0.500000000000     0.904100000000     0.813850000000     0          
O        O      0.954050000000     0.865600000000     0.830050000000     0          
O        O      0.500000000000     0.889500000000     0.875000000000     0          
O        O      0.500000000000     0.783700000000     0.875000000000     0          
O        O      0.546050000000     0.806800000000     0.829350000000     0          
O        O      0.500000000000     0.768200000000     0.814150000000     0          
O        O      0.500000000000     0.772700000000     0.500350000000     0          
O        O      0.545750000000     0.737800000000     0.972550000000     0          
O        O      0.500000000000     0.571900000000     0.815850000000     0          
O        O      0.954050000000     0.610600000000     0.831800000000     0          
O        O      0.500000000000     0.608600000000     0.776200000000     0          
O        O      0.500000000000     0.535800000000     0.775000000000     0          
O        O      0.545750000000     0.533100000000     0.830950000000     0          
O        O      0.863550000000     0.534600000000     0.524150000000     0          
O        O      0.848450000000     0.563700000000     0.974700000000     0          
O        O      0.884100000000     0.579800000000     0.529850000000     0          
O        O      0.866450000000     0.663500000000     0.574000000000     0          
O        O      0.879350000000     0.617900000000     0.566000000000     0          
O        O      0.862600000000     0.634800000000     0.625000000000     0          
O        O      0.883300000000     0.708400000000     0.580550000000     0          
O        O      0.846900000000     0.692300000000     0.525450000000     0          
O        O      0.867700000000     0.791200000000     0.529400000000     0          
O        O      0.868350000000     0.752500000000     0.564550000000     0          
O        O      0.863650000000     0.885100000000     0.625000000000     0          
O        O      0.878550000000     0.873500000000     0.562900000000     0          
O        O      0.867200000000     0.918100000000     0.579750000000     0          
O        O      0.886650000000     0.963500000000     0.576750000000     0          
O        O      0.846450000000     0.004000000000     0.564300000000     0          
O        O      0.848900000000     0.987900000000     0.625000000000     0          
O        O      0.954200000000     0.534600000000     0.531700000000     0          
O        O      0.914200000000     0.500000000000     0.500000000000     0          
O        O      0.953700000000     0.610600000000     0.529750000000     0          
O        O      0.873550000000     0.620900000000     0.501400000000     0          
O        O      0.954000000000     0.738300000000     0.578100000000     0          
O        O      0.891150000000     0.741800000000     0.625000000000     0          
O        O      0.953950000000     0.807500000000     0.528350000000     0          
O        O      0.882200000000     0.836500000000     0.523450000000     0          
O        O      0.953800000000     0.864600000000     0.527100000000     0          
O        O      0.954150000000     0.932700000000     0.578300000000     0          
O        O      0.500000000000     0.572500000000     0.514300000000     0          
O        O      0.500000000000     0.760400000000     0.625000000000     0          
O        O      0.500000000000     0.777200000000     0.564850000000     0          
O        O      0.500000000000     0.893600000000     0.565000000000     0          
O        O      0.500000000000     0.910300000000     0.625000000000     0          
T        Si     0.848200000000     0.561000000000     0.514150000000     0          
T        Si     0.847900000000     0.689400000000     0.564850000000     0          
T        Si     0.851800000000     0.764000000000     0.530250000000     0          
T        Si     0.908500000000     0.518100000000     0.530150000000     0          
T        Si     0.901900000000     0.810800000000     0.513950000000     0          
T        Si     0.897550000000     0.863600000000     0.528250000000     0          
T        Si     0.902100000000     0.937600000000     0.564850000000     0          
T        Si     0.851600000000     0.891300000000     0.587200000000     0          
T        Si     0.844200000000     0.980700000000     0.586800000000     0          
T        Si     0.897800000000     0.607200000000     0.531650000000     0          
T        Si     0.899450000000     0.735100000000     0.586900000000     0          
T        Si     0.851150000000     0.637600000000     0.586400000000     0          
T        Si     0.500000000000     0.918300000000     0.779500000000     0          
T        Si     0.500000000000     0.754200000000     0.970350000000     0          
T        Si     0.500000000000     0.791200000000     0.719600000000     0          
T        Si     0.500000000000     0.880700000000     0.529750000000     0          
T        Si     0.500000000000     0.917400000000     0.586650000000     0          
T        Si     0.500000000000     0.791400000000     0.836850000000     0          
T        Si     0.500000000000     0.881200000000     0.837100000000     0          
T        Si     0.500000000000     0.600200000000     0.814100000000     0          
T        Si     0.500000000000     0.543600000000     0.813100000000     0          
T        Si     0.500000000000     0.544200000000     0.512900000000     0          
T        Si     0.500000000000     0.600700000000     0.511900000000     0          
T        Si     0.500000000000     0.753500000000     0.586550000000     0          
O        O      0.953900000000     0.065500000000     0.527800000000     0          
O        O      0.500000000000     0.100000000000     0.999200000000     0          
O        O      0.500000000000     0.095900000000     0.563850000000     0          
O        O      0.545950000000     0.134400000000     0.580050000000     0          
O        O      0.500000000000     0.110500000000     0.625000000000     0          
O        O      0.500000000000     0.216300000000     0.625000000000     0          
O        O      0.953950000000     0.193200000000     0.579350000000     0          
O        O      0.500000000000     0.231800000000     0.564150000000     0          
O        O      0.500000000000     0.227300000000     0.750350000000     0          
O        O      0.954250000000     0.262200000000     0.722550000000     0          
O        O      0.500000000000     0.428100000000     0.565850000000     0          
O        O      0.545950000000     0.389400000000     0.581800000000     0          
O        O      0.500000000000     0.391400000000     0.526200000000     0          
O        O      0.500000000000     0.464200000000     0.525000000000     0          
O        O      0.954250000000     0.466900000000     0.580950000000     0          
O        O      0.636450000000     0.465400000000     0.774150000000     0          
O        O      0.651550000000     0.436300000000     0.724700000000     0          
O        O      0.615900000000     0.420200000000     0.779850000000     0          
O        O      0.633550000000     0.336500000000     0.824000000000     0          
O        O      0.620650000000     0.382100000000     0.816000000000     0          
O        O      0.637400000000     0.365200000000     0.875000000000     0          
O        O      0.616700000000     0.291600000000     0.830550000000     0          
O        O      0.653100000000     0.307700000000     0.775450000000     0          
O        O      0.632300000000     0.208800000000     0.779400000000     0          
O        O      0.631650000000     0.247500000000     0.814550000000     0          
O        O      0.636350000000     0.114900000000     0.875000000000     0          
O        O      0.621450000000     0.126500000000     0.812900000000     0          
O        O      0.632800000000     0.081900000000     0.829750000000     0          
O        O      0.613350000000     0.036500000000     0.826750000000     0          
O        O      0.653550000000     0.996000000000     0.814300000000     0          
O        O      0.651100000000     0.012100000000     0.875000000000     0          
O        O      0.545800000000     0.465400000000     0.781700000000     0          
O        O      0.585800000000     0.500000000000     0.750000000000     0          
O        O      0.546300000000     0.389400000000     0.779750000000     0          
O        O      0.626450000000     0.379100000000     0.751400000000     0          
O        O      0.546000000000     0.261700000000     0.828100000000     0          
O        O      0.608850000000     0.258200000000     0.875000000000     0          
O        O      0.546050000000     0.192500000000     0.778350000000     0          
O        O      0.617800000000     0.163500000000     0.773450000000     0          
O        O      0.546200000000     0.135400000000     0.777100000000     0          
O        O      0.545850000000     0.067300000000     0.828300000000     0          
O        O      0.500000000000     0.427500000000     0.764300000000     0          
O        O      0.500000000000     0.239600000000     0.875000000000     0          
O        O      0.500000000000     0.222800000000     0.814850000000     0          
O        O      0.500000000000     0.106400000000     0.815000000000     0          
O        O      0.500000000000     0.089700000000     0.875000000000     0          
T        Si     0.651800000000     0.439000000000     0.764150000000     0          
T        Si     0.652100000000     0.310600000000     0.814850000000     0          
T        Si     0.648200000000     0.236000000000     0.780250000000     0          
T        Si     0.591500000000     0.481900000000     0.780150000000     0          
T        Si     0.598100000000     0.189200000000     0.763950000000     0          
T        Si     0.602450000000     0.136400000000     0.778250000000     0          
T        Si     0.597900000000     0.062400000000     0.814850000000     0          
T        Si     0.648400000000     0.108700000000     0.837200000000     0          
T        Si     0.655800000000     0.019300000000     0.836800000000     0          
T        Si     0.602200000000     0.392800000000     0.781650000000     0          
T        Si     0.600550000000     0.264900000000     0.836900000000     0          
T        Si     0.648850000000     0.362400000000     0.836400000000     0          
T        Si     0.500000000000     0.081700000000     0.529500000000     0          
T        Si     0.500000000000     0.245800000000     0.720350000000     0          
T        Si     0.500000000000     0.208800000000     0.969600000000     0          
T        Si     0.500000000000     0.119300000000     0.779750000000     0          
T        Si     0.500000000000     0.082600000000     0.836650000000     0          
T        Si     0.500000000000     0.208600000000     0.586850000000     0          
T        Si     0.500000000000     0.118800000000     0.587100000000     0          
T        Si     0.500000000000     0.399800000000     0.564100000000     0          
T        Si     0.500000000000     0.456400000000     0.563100000000     0          
T        Si     0.500000000000     0.455800000000     0.762900000000     0          
T        Si     0.500000000000     0.399300000000     0.761900000000     0          
T        Si     0.500000000000     0.246500000000     0.836550000000     0          
O        O      0.546100000000     0.065500000000     0.722200000000     0          
O        O      0.500000000000     0.100000000000     0.750800000000     0          
O        O      0.500000000000     0.095900000000     0.686150000000     0          
O        O      0.954050000000     0.134400000000     0.669950000000     0          
O        O      0.546050000000     0.193200000000     0.670650000000     0          
O        O      0.500000000000     0.231800000000     0.685850000000     0          
O        O      0.500000000000     0.227300000000     0.999650000000     0          
O        O      0.545750000000     0.262200000000     0.527450000000     0          
O        O      0.500000000000     0.428100000000     0.684150000000     0          
O        O      0.954050000000     0.389400000000     0.668200000000     0          
O        O      0.500000000000     0.391400000000     0.723800000000     0          
O        O      0.500000000000     0.464200000000     0.725000000000     0          
O        O      0.545750000000     0.466900000000     0.669050000000     0          
O        O      0.863550000000     0.465400000000     0.975850000000     0          
O        O      0.848450000000     0.436300000000     0.525300000000     0          
O        O      0.884100000000     0.420200000000     0.970150000000     0          
O        O      0.866450000000     0.336500000000     0.926000000000     0          
O        O      0.879350000000     0.382100000000     0.934000000000     0          
O        O      0.862600000000     0.365200000000     0.875000000000     0          
O        O      0.883300000000     0.291600000000     0.919450000000     0          
O        O      0.846900000000     0.307700000000     0.974550000000     0          
O        O      0.867700000000     0.208800000000     0.970600000000     0          
O        O      0.868350000000     0.247500000000     0.935450000000     0          
O        O      0.863650000000     0.114900000000     0.875000000000     0          
O        O      0.878550000000     0.126500000000     0.937100000000     0          
O        O      0.867200000000     0.081900000000     0.920250000000     0          
O        O      0.886650000000     0.036500000000     0.923250000000     0          
O        O      0.846450000000     0.996000000000     0.935700000000     0          
O        O      0.848900000000     0.012100000000     0.875000000000     0          
O        O      0.954200000000     0.465400000000     0.968300000000     0          
O        O      0.953700000000     0.389400000000     0.970250000000     0          
O        O      0.873550000000     0.379100000000     0.998600000000     0          
O        O      0.954000000000     0.261700000000     0.921900000000     0          
O        O      0.891150000000     0.258200000000     0.875000000000     0          
O        O      0.953950000000     0.192500000000     0.971650000000     0          
O        O      0.882200000000     0.163500000000     0.976550000000     0          
O        O      0.953800000000     0.135400000000     0.972900000000     0          
O        O      0.954150000000     0.067300000000     0.921700000000     0          
O        O      0.500000000000     0.427500000000     0.985700000000     0          
O        O      0.500000000000     0.222800000000     0.935150000000     0          
O        O      0.500000000000     0.106400000000     0.935000000000     0          
T        Si     0.848200000000     0.439000000000     0.985850000000     0          
T        Si     0.847900000000     0.310600000000     0.935150000000     0          
T        Si     0.851800000000     0.236000000000     0.969750000000     0          
T        Si     0.908500000000     0.481900000000     0.969850000000     0          
T        Si     0.901900000000     0.189200000000     0.986050000000     0          
T        Si     0.897550000000     0.136400000000     0.971750000000     0          
T        Si     0.902100000000     0.062400000000     0.935150000000     0          
T        Si     0.851600000000     0.108700000000     0.912800000000     0          
T        Si     0.844200000000     0.019300000000     0.913200000000     0          
T        Si     0.897800000000     0.392800000000     0.968350000000     0          
T        Si     0.899450000000     0.264900000000     0.913100000000     0          
T        Si     0.851150000000     0.362400000000     0.913600000000     0          
T        Si     0.500000000000     0.081700000000     0.720500000000     0          
T        Si     0.500000000000     0.245800000000     0.529650000000     0          
T        Si     0.500000000000     0.208800000000     0.780400000000     0          
T        Si     0.500000000000     0.119300000000     0.970250000000     0          
T        Si     0.500000000000     0.082600000000     0.913350000000     0          
T        Si     0.500000000000     0.208600000000     0.663150000000     0          
T        Si     0.500000000000     0.118800000000     0.662900000000     0          
T        Si     0.500000000000     0.399800000000     0.685900000000     0          
T        Si     0.500000000000     0.456400000000     0.686900000000     0          
T        Si     0.500000000000     0.455800000000     0.987100000000     0          
T        Si     0.500000000000     0.399300000000     0.988100000000     0          
T        Si     0.500000000000     0.246500000000     0.913450000000     0          
O        O      0.953900000000     0.934500000000     0.972200000000     0          
O        O      0.500000000000     0.900000000000     0.500800000000     0          
O        O      0.500000000000     0.904100000000     0.936150000000     0          
O        O      0.545950000000     0.865600000000     0.919950000000     0          
O        O      0.953950000000     0.806800000000     0.920650000000     0          
O        O      0.500000000000     0.768200000000     0.935850000000     0          
O        O      0.500000000000     0.772700000000     0.749650000000     0          
O        O      0.954250000000     0.737800000000     0.777450000000     0          
O        O      0.500000000000     0.571900000000     0.934150000000     0          
O        O      0.545950000000     0.610600000000     0.918200000000     0          
O        O      0.500000000000     0.608600000000     0.973800000000     0          
O        O      0.500000000000     0.535800000000     0.975000000000     0          
O        O      0.954250000000     0.533100000000     0.919050000000     0          
O        O      0.636450000000     0.534600000000     0.725850000000     0          
O        O      0.651550000000     0.563700000000     0.775300000000     0          
O        O      0.615900000000     0.579800000000     0.720150000000     0          
O        O      0.633550000000     0.663500000000     0.676000000000     0          
O        O      0.620650000000     0.617900000000     0.684000000000     0          
O        O      0.637400000000     0.634800000000     0.625000000000     0          
O        O      0.616700000000     0.708400000000     0.669450000000     0          
O        O      0.653100000000     0.692300000000     0.724550000000     0          
O        O      0.632300000000     0.791200000000     0.720600000000     0          
O        O      0.631650000000     0.752500000000     0.685450000000     0          
O        O      0.636350000000     0.885100000000     0.625000000000     0          
O        O      0.621450000000     0.873500000000     0.687100000000     0          
O        O      0.632800000000     0.918100000000     0.670250000000     0          
O        O      0.613350000000     0.963500000000     0.673250000000     0          
O        O      0.653550000000     0.004000000000     0.685700000000     0          
O        O      0.651100000000     0.987900000000     0.625000000000     0          
O        O      0.545800000000     0.534600000000     0.718300000000     0          
O        O      0.546300000000     0.610600000000     0.720250000000     0          
O        O      0.626450000000     0.620900000000     0.748600000000     0          
O        O      0.546000000000     0.738300000000     0.671900000000     0          
O        O      0.608850000000     0.741800000000     0.625000000000     0          
O        O      0.546050000000     0.807500000000     0.721650000000     0          
O        O      0.617800000000     0.836500000000     0.726550000000     0          
O        O      0.546200000000     0.864600000000     0.722900000000     0          
O        O      0.545850000000     0.932700000000     0.671700000000     0          
O        O      0.500000000000     0.572500000000     0.735700000000     0          
O        O      0.500000000000     0.777200000000     0.685150000000     0          
O        O      0.500000000000     0.893600000000     0.685000000000     0          
T        Si     0.651800000000     0.561000000000     0.735850000000     0          
T        Si     0.652100000000     0.689400000000     0.685150000000     0          
T        Si     0.648200000000     0.764000000000     0.719750000000     0          
T        Si     0.591500000000     0.518100000000     0.719850000000     0          
T        Si     0.598100000000     0.810800000000     0.736050000000     0          
T        Si     0.602450000000     0.863600000000     0.721750000000     0          
T        Si     0.597900000000     0.937600000000     0.685150000000     0          
T        Si     0.648400000000     0.891300000000     0.662800000000     0          
T        Si     0.655800000000     0.980700000000     0.663200000000     0          
T        Si     0.602200000000     0.607200000000     0.718350000000     0          
T        Si     0.600550000000     0.735100000000     0.663100000000     0          
T        Si     0.648850000000     0.637600000000     0.663600000000     0          
T        Si     0.500000000000     0.918300000000     0.970500000000     0          
T        Si     0.500000000000     0.754200000000     0.779650000000     0          
T        Si     0.500000000000     0.791200000000     0.530400000000     0          
T        Si     0.500000000000     0.880700000000     0.720250000000     0          
T        Si     0.500000000000     0.917400000000     0.663350000000     0          
T        Si     0.500000000000     0.791400000000     0.913150000000     0          
T        Si     0.500000000000     0.881200000000     0.912900000000     0          
T        Si     0.500000000000     0.600200000000     0.935900000000     0          
T        Si     0.500000000000     0.543600000000     0.936900000000     0          
T        Si     0.500000000000     0.544200000000     0.737100000000     0          
T        Si     0.500000000000     0.600700000000     0.738100000000     0          
T        Si     0.500000000000     0.753500000000     0.663450000000     0          
O        O      0.953900000000     0.065500000000     0.722200000000     0          
O        O      0.545950000000     0.134400000000     0.669950000000     0          
O        O      0.953950000000     0.193200000000     0.670650000000     0          
O        O      0.954250000000     0.262200000000     0.527450000000     0          
O        O      0.545950000000     0.389400000000     0.668200000000     0          
O        O      0.954250000000     0.466900000000     0.669050000000     0          
O        O      0.636450000000     0.465400000000     0.975850000000     0          
O        O      0.651550000000     0.436300000000     0.525300000000     0          
O        O      0.615900000000     0.420200000000     0.970150000000     0          
O        O      0.633550000000     0.336500000000     0.926000000000     0          
O        O      0.620650000000     0.382100000000     0.934000000000     0          
O        O      0.616700000000     0.291600000000     0.919450000000     0          
O        O      0.653100000000     0.307700000000     0.974550000000     0          
O        O      0.632300000000     0.208800000000     0.970600000000     0          
O        O      0.631650000000     0.247500000000     0.935450000000     0          
O        O      0.621450000000     0.126500000000     0.937100000000     0          
O        O      0.632800000000     0.081900000000     0.920250000000     0          
O        O      0.613350000000     0.036500000000     0.923250000000     0          
O        O      0.653550000000     0.996000000000     0.935700000000     0          
O        O      0.545800000000     0.465400000000     0.968300000000     0          
O        O      0.585800000000     0.500000000000     0.500000000000     0          
O        O      0.546300000000     0.389400000000     0.970250000000     0          
O        O      0.626450000000     0.379100000000     0.998600000000     0          
O        O      0.546000000000     0.261700000000     0.921900000000     0          
O        O      0.546050000000     0.192500000000     0.971650000000     0          
O        O      0.617800000000     0.163500000000     0.976550000000     0          
O        O      0.546200000000     0.135400000000     0.972900000000     0          
O        O      0.545850000000     0.067300000000     0.921700000000     0          
T        Si     0.651800000000     0.439000000000     0.985850000000     0          
T        Si     0.652100000000     0.310600000000     0.935150000000     0          
T        Si     0.648200000000     0.236000000000     0.969750000000     0          
T        Si     0.591500000000     0.481900000000     0.969850000000     0          
T        Si     0.598100000000     0.189200000000     0.986050000000     0          
T        Si     0.602450000000     0.136400000000     0.971750000000     0          
T        Si     0.597900000000     0.062400000000     0.935150000000     0          
T        Si     0.648400000000     0.108700000000     0.912800000000     0          
T        Si     0.655800000000     0.019300000000     0.913200000000     0          
T        Si     0.602200000000     0.392800000000     0.968350000000     0          
T        Si     0.600550000000     0.264900000000     0.913100000000     0          
T        Si     0.648850000000     0.362400000000     0.913600000000     0          
O        O      0.546100000000     0.934500000000     0.972200000000     0          
O        O      0.954050000000     0.865600000000     0.919950000000     0          
O        O      0.546050000000     0.806800000000     0.920650000000     0          
O        O      0.545750000000     0.737800000000     0.777450000000     0          
O        O      0.954050000000     0.610600000000     0.918200000000     0          
O        O      0.545750000000     0.533100000000     0.919050000000     0          
O        O      0.863550000000     0.534600000000     0.725850000000     0          
O        O      0.848450000000     0.563700000000     0.775300000000     0          
O        O      0.884100000000     0.579800000000     0.720150000000     0          
O        O      0.866450000000     0.663500000000     0.676000000000     0          
O        O      0.879350000000     0.617900000000     0.684000000000     0          
O        O      0.883300000000     0.708400000000     0.669450000000     0          
O        O      0.846900000000     0.692300000000     0.724550000000     0          
O        O      0.867700000000     0.791200000000     0.720600000000     0          
O        O      0.868350000000     0.752500000000     0.685450000000     0          
O        O      0.878550000000     0.873500000000     0.687100000000     0          
O        O      0.867200000000     0.918100000000     0.670250000000     0          
O        O      0.886650000000     0.963500000000     0.673250000000     0          
O        O      0.846450000000     0.004000000000     0.685700000000     0          
O        O      0.954200000000     0.534600000000     0.718300000000     0          
O        O      0.914200000000     0.500000000000     0.750000000000     0          
O        O      0.953700000000     0.610600000000     0.720250000000     0          
O        O      0.873550000000     0.620900000000     0.748600000000     0          
O        O      0.954000000000     0.738300000000     0.671900000000     0          
O        O      0.953950000000     0.807500000000     0.721650000000     0          
O        O      0.882200000000     0.836500000000     0.726550000000     0          
O        O      0.953800000000     0.864600000000     0.722900000000     0          
O        O      0.954150000000     0.932700000000     0.671700000000     0          
T        Si     0.848200000000     0.561000000000     0.735850000000     0          
T        Si     0.847900000000     0.689400000000     0.685150000000     0          
T        Si     0.851800000000     0.764000000000     0.719750000000     0          
T        Si     0.908500000000     0.518100000000     0.719850000000     0          
T        Si     0.901900000000     0.810800000000     0.736050000000     0          
T        Si     0.897550000000     0.863600000000     0.721750000000     0          
T        Si     0.902100000000     0.937600000000     0.685150000000     0          
T        Si     0.851600000000     0.891300000000     0.662800000000     0          
T        Si     0.844200000000     0.980700000000     0.663200000000     0          
T        Si     0.897800000000     0.607200000000     0.718350000000     0          
T        Si     0.899450000000     0.735100000000     0.663100000000     0          
T        Si     0.851150000000     0.637600000000     0.663600000000     0          
O        O      0.953900000000     0.934500000000     0.777800000000     0          
O        O      0.545950000000     0.865600000000     0.830050000000     0          
O        O      0.953950000000     0.806800000000     0.829350000000     0          
O        O      0.954250000000     0.737800000000     0.972550000000     0          
O        O      0.545950000000     0.610600000000     0.831800000000     0          
O        O      0.954250000000     0.533100000000     0.830950000000     0          
O        O      0.636450000000     0.534600000000     0.524150000000     0          
O        O      0.651550000000     0.563700000000     0.974700000000     0          
O        O      0.615900000000     0.579800000000     0.529850000000     0          
O        O      0.633550000000     0.663500000000     0.574000000000     0          
O        O      0.620650000000     0.617900000000     0.566000000000     0          
O        O      0.616700000000     0.708400000000     0.580550000000     0          
O        O      0.653100000000     0.692300000000     0.525450000000     0          
O        O      0.632300000000     0.791200000000     0.529400000000     0          
O        O      0.631650000000     0.752500000000     0.564550000000     0          
O        O      0.621450000000     0.873500000000     0.562900000000     0          
O        O      0.632800000000     0.918100000000     0.579750000000     0          
O        O      0.613350000000     0.963500000000     0.576750000000     0          
O        O      0.653550000000     0.004000000000     0.564300000000     0          
O        O      0.545800000000     0.534600000000     0.531700000000     0          
O        O      0.546300000000     0.610600000000     0.529750000000     0          
O        O      0.626450000000     0.620900000000     0.501400000000     0          
O        O      0.546000000000     0.738300000000     0.578100000000     0          
O        O      0.546050000000     0.807500000000     0.528350000000     0          
O        O      0.617800000000     0.836500000000     0.523450000000     0          
O        O      0.546200000000     0.864600000000     0.527100000000     0          
O        O      0.545850000000     0.932700000000     0.578300000000     0          
T        Si     0.651800000000     0.561000000000     0.514150000000     0          
T        Si     0.652100000000     0.689400000000     0.564850000000     0          
T        Si     0.648200000000     0.764000000000     0.530250000000     0          
T        Si     0.591500000000     0.518100000000     0.530150000000     0          
T        Si     0.598100000000     0.810800000000     0.513950000000     0          
T        Si     0.602450000000     0.863600000000     0.528250000000     0          
T        Si     0.597900000000     0.937600000000     0.564850000000     0          
T        Si     0.648400000000     0.891300000000     0.587200000000     0          
T        Si     0.655800000000     0.980700000000     0.586800000000     0          
T        Si     0.602200000000     0.607200000000     0.531650000000     0          
T        Si     0.600550000000     0.735100000000     0.586900000000     0          
T        Si     0.648850000000     0.637600000000     0.586400000000     0          
O        O      0.546100000000     0.065500000000     0.527800000000     0          
O        O      0.954050000000     0.134400000000     0.580050000000     0          
O        O      0.546050000000     0.193200000000     0.579350000000     0          
O        O      0.545750000000     0.262200000000     0.722550000000     0          
O        O      0.954050000000     0.389400000000     0.581800000000     0          
O        O      0.545750000000     0.466900000000     0.580950000000     0          
O        O      0.863550000000     0.465400000000     0.774150000000     0          
O        O      0.848450000000     0.436300000000     0.724700000000     0          
O        O      0.884100000000     0.420200000000     0.779850000000     0          
O        O      0.866450000000     0.336500000000     0.824000000000     0          
O        O      0.879350000000     0.382100000000     0.816000000000     0          
O        O      0.883300000000     0.291600000000     0.830550000000     0          
O        O      0.846900000000     0.307700000000     0.775450000000     0          
O        O      0.867700000000     0.208800000000     0.779400000000     0          
O        O      0.868350000000     0.247500000000     0.814550000000     0          
O        O      0.878550000000     0.126500000000     0.812900000000     0          
O        O      0.867200000000     0.081900000000     0.829750000000     0          
O        O      0.886650000000     0.036500000000     0.826750000000     0          
O        O      0.846450000000     0.996000000000     0.814300000000     0          
O        O      0.954200000000     0.465400000000     0.781700000000     0          
O        O      0.953700000000     0.389400000000     0.779750000000     0          
O        O      0.873550000000     0.379100000000     0.751400000000     0          
O        O      0.954000000000     0.261700000000     0.828100000000     0          
O        O      0.953950000000     0.192500000000     0.778350000000     0          
O        O      0.882200000000     0.163500000000     0.773450000000     0          
O        O      0.953800000000     0.135400000000     0.777100000000     0          
O        O      0.954150000000     0.067300000000     0.828300000000     0          
T        Si     0.848200000000     0.439000000000     0.764150000000     0          
T        Si     0.847900000000     0.310600000000     0.814850000000     0          
T        Si     0.851800000000     0.236000000000     0.780250000000     0          
T        Si     0.908500000000     0.481900000000     0.780150000000     0          
T        Si     0.901900000000     0.189200000000     0.763950000000     0          
T        Si     0.897550000000     0.136400000000     0.778250000000     0          
T        Si     0.902100000000     0.062400000000     0.814850000000     0          
T        Si     0.851600000000     0.108700000000     0.837200000000     0          
T        Si     0.844200000000     0.019300000000     0.836800000000     0          
T        Si     0.897800000000     0.392800000000     0.781650000000     0          
T        Si     0.899450000000     0.264900000000     0.836900000000     0          
T        Si     0.851150000000     0.362400000000     0.836400000000     0          


