data_zeolite

_audit_creation_method RASPA-1.0
_audit_creation_date 2021-6-6
_audit_author_name ''

_cell_length_a    37.062
_cell_length_b    26.71
_cell_length_c    28.908
_cell_angle_alpha 90
_cell_angle_beta  90
_cell_angle_gamma 90
_cell_volume      28616.8

_symmetry_cell_setting          orthorhombic
_symmetry_space_group_name_Hall 'P 1'
_symmetry_space_group_name_H-M  'P 1'
_symmetry_Int_Tables_number     1

_symmetry_equiv_pos_as_xyz 'x,y,z'

loop_
_atom_site_label
_atom_site_type_symbol
_atom_site_fract_x
_atom_site_fract_y
_atom_site_fract_z
_atom_site_charge
O        O      0.055100000000     0.261500000000     0.075800000000     0          
O        O      0.050000000000     0.250000000000     0.166666666667     0          
O        O      0.000000000000     0.299500000000     0.121000000000     0          
O        O      0.064600000000     0.337900000000     0.131700000000     0          
O        O      0.088250000000     0.323350000000     0.272533333333     0          
O        O      0.125000000000     0.243650000000     0.250000000000     0          
O        O      0.094700000000     0.250000000000     0.000000000000     0          
O        O      0.125000000000     0.375000000000     0.000000000000     0          
O        O      0.125000000000     0.344850000000     0.083333333333     0          
T        Si     0.042350000000     0.286800000000     0.123733333333     0          
T        Si     0.090850000000     0.263550000000     0.279333333333     0          
T        Si     0.150200000000     0.371200000000     0.044966666667     0          
O        O      0.194900000000     0.238500000000     0.242466666667     0          
O        O      0.200000000000     0.250000000000     0.000000000000     0          
O        O      0.250000000000     0.200500000000     0.287666666667     0          
O        O      0.185400000000     0.162100000000     0.298366666667     0          
O        O      0.161750000000     0.176650000000     0.105866666667     0          
O        O      0.125000000000     0.256350000000     0.083333333333     0          
O        O      0.155300000000     0.250000000000     0.166666666667     0          
O        O      0.125000000000     0.125000000000     0.166666666667     0          
O        O      0.125000000000     0.155150000000     0.250000000000     0          
T        Si     0.207650000000     0.213200000000     0.290400000000     0          
T        Si     0.159150000000     0.236450000000     0.112666666667     0          
T        Si     0.099800000000     0.128800000000     0.211633333333     0          
O        O      0.055100000000     0.238500000000     0.257533333333     0          
O        O      0.000000000000     0.200500000000     0.212333333333     0          
O        O      0.064600000000     0.162100000000     0.201633333333     0          
O        O      0.088250000000     0.176650000000     0.060800000000     0          
O        O      0.125000000000     0.125000000000     0.000000000000     0          
T        Si     0.042350000000     0.213200000000     0.209600000000     0          
T        Si     0.090850000000     0.236450000000     0.054000000000     0          
T        Si     0.150200000000     0.128800000000     0.288366666667     0          
O        O      0.194900000000     0.261500000000     0.090866666667     0          
O        O      0.250000000000     0.299500000000     0.045666666667     0          
O        O      0.185400000000     0.337900000000     0.034966666667     0          
O        O      0.161750000000     0.323350000000     0.227466666667     0          
O        O      0.125000000000     0.375000000000     0.166666666667     0          
T        Si     0.207650000000     0.286800000000     0.042933333333     0          
T        Si     0.159150000000     0.263550000000     0.220666666667     0          
T        Si     0.099800000000     0.371200000000     0.121700000000     0          
O        O      0.444900000000     0.238500000000     0.257533333333     0          
O        O      0.450000000000     0.250000000000     0.166666666667     0          
O        O      0.435400000000     0.162100000000     0.201633333333     0          
O        O      0.411750000000     0.176650000000     0.060800000000     0          
O        O      0.375000000000     0.256350000000     0.083333333333     0          
O        O      0.405300000000     0.250000000000     0.000000000000     0          
O        O      0.375000000000     0.125000000000     0.000000000000     0          
O        O      0.375000000000     0.155150000000     0.250000000000     0          
T        Si     0.457650000000     0.213200000000     0.209600000000     0          
T        Si     0.409150000000     0.236450000000     0.054000000000     0          
T        Si     0.349800000000     0.128800000000     0.288366666667     0          
O        O      0.305100000000     0.261500000000     0.090866666667     0          
O        O      0.300000000000     0.250000000000     0.000000000000     0          
O        O      0.314600000000     0.337900000000     0.034966666667     0          
O        O      0.338250000000     0.323350000000     0.227466666667     0          
O        O      0.375000000000     0.243650000000     0.250000000000     0          
O        O      0.344700000000     0.250000000000     0.166666666667     0          
O        O      0.375000000000     0.375000000000     0.166666666667     0          
O        O      0.375000000000     0.344850000000     0.083333333333     0          
T        Si     0.292350000000     0.286800000000     0.042933333333     0          
T        Si     0.340850000000     0.263550000000     0.220666666667     0          
T        Si     0.400200000000     0.371200000000     0.121700000000     0          
O        O      0.444900000000     0.261500000000     0.075800000000     0          
O        O      0.435400000000     0.337900000000     0.131700000000     0          
O        O      0.411750000000     0.323350000000     0.272533333333     0          
O        O      0.375000000000     0.375000000000     0.000000000000     0          
T        Si     0.457650000000     0.286800000000     0.123733333333     0          
T        Si     0.409150000000     0.263550000000     0.279333333333     0          
T        Si     0.349800000000     0.371200000000     0.044966666667     0          
O        O      0.305100000000     0.238500000000     0.242466666667     0          
O        O      0.314600000000     0.162100000000     0.298366666667     0          
O        O      0.338250000000     0.176650000000     0.105866666667     0          
O        O      0.375000000000     0.125000000000     0.166666666667     0          
T        Si     0.292350000000     0.213200000000     0.290400000000     0          
T        Si     0.340850000000     0.236450000000     0.112666666667     0          
T        Si     0.400200000000     0.128800000000     0.211633333333     0          
O        O      0.305100000000     0.011500000000     0.075800000000     0          
O        O      0.300000000000     0.000000000000     0.166666666667     0          
O        O      0.250000000000     0.049500000000     0.121000000000     0          
O        O      0.314600000000     0.087900000000     0.131700000000     0          
O        O      0.338250000000     0.073350000000     0.272533333333     0          
O        O      0.375000000000     0.493650000000     0.250000000000     0          
O        O      0.344700000000     0.000000000000     0.000000000000     0          
O        O      0.375000000000     0.094850000000     0.083333333333     0          
T        Si     0.292350000000     0.036800000000     0.123733333333     0          
T        Si     0.340850000000     0.013550000000     0.279333333333     0          
T        Si     0.400200000000     0.121200000000     0.044966666667     0          
O        O      0.444900000000     0.488500000000     0.242466666667     0          
O        O      0.450000000000     0.000000000000     0.000000000000     0          
O        O      0.000000000000     0.450500000000     0.287666666667     0          
O        O      0.435400000000     0.412100000000     0.298366666667     0          
O        O      0.411750000000     0.426650000000     0.105866666667     0          
O        O      0.375000000000     0.006350000000     0.083333333333     0          
O        O      0.405300000000     0.000000000000     0.166666666667     0          
O        O      0.375000000000     0.405150000000     0.250000000000     0          
T        Si     0.457650000000     0.463200000000     0.290400000000     0          
T        Si     0.409150000000     0.486450000000     0.112666666667     0          
T        Si     0.349800000000     0.378800000000     0.211633333333     0          
O        O      0.305100000000     0.488500000000     0.257533333333     0          
O        O      0.250000000000     0.450500000000     0.212333333333     0          
O        O      0.314600000000     0.412100000000     0.201633333333     0          
O        O      0.338250000000     0.426650000000     0.060800000000     0          
T        Si     0.292350000000     0.463200000000     0.209600000000     0          
T        Si     0.340850000000     0.486450000000     0.054000000000     0          
T        Si     0.400200000000     0.378800000000     0.288366666667     0          
O        O      0.444900000000     0.011500000000     0.090866666667     0          
O        O      0.000000000000     0.049500000000     0.045666666667     0          
O        O      0.435400000000     0.087900000000     0.034966666667     0          
O        O      0.411750000000     0.073350000000     0.227466666667     0          
T        Si     0.457650000000     0.036800000000     0.042933333333     0          
T        Si     0.409150000000     0.013550000000     0.220666666667     0          
T        Si     0.349800000000     0.121200000000     0.121700000000     0          
O        O      0.194900000000     0.488500000000     0.257533333333     0          
O        O      0.200000000000     0.000000000000     0.166666666667     0          
O        O      0.185400000000     0.412100000000     0.201633333333     0          
O        O      0.161750000000     0.426650000000     0.060800000000     0          
O        O      0.125000000000     0.006350000000     0.083333333333     0          
O        O      0.155300000000     0.000000000000     0.000000000000     0          
O        O      0.125000000000     0.405150000000     0.250000000000     0          
T        Si     0.207650000000     0.463200000000     0.209600000000     0          
T        Si     0.159150000000     0.486450000000     0.054000000000     0          
T        Si     0.099800000000     0.378800000000     0.288366666667     0          
O        O      0.055100000000     0.011500000000     0.090866666667     0          
O        O      0.050000000000     0.000000000000     0.000000000000     0          
O        O      0.064600000000     0.087900000000     0.034966666667     0          
O        O      0.088250000000     0.073350000000     0.227466666667     0          
O        O      0.125000000000     0.493650000000     0.250000000000     0          
O        O      0.094700000000     0.000000000000     0.166666666667     0          
O        O      0.125000000000     0.094850000000     0.083333333333     0          
T        Si     0.042350000000     0.036800000000     0.042933333333     0          
T        Si     0.090850000000     0.013550000000     0.220666666667     0          
T        Si     0.150200000000     0.121200000000     0.121700000000     0          
O        O      0.194900000000     0.011500000000     0.075800000000     0          
O        O      0.185400000000     0.087900000000     0.131700000000     0          
O        O      0.161750000000     0.073350000000     0.272533333333     0          
T        Si     0.207650000000     0.036800000000     0.123733333333     0          
T        Si     0.159150000000     0.013550000000     0.279333333333     0          
T        Si     0.099800000000     0.121200000000     0.044966666667     0          
O        O      0.055100000000     0.488500000000     0.242466666667     0          
O        O      0.064600000000     0.412100000000     0.298366666667     0          
O        O      0.088250000000     0.426650000000     0.105866666667     0          
T        Si     0.042350000000     0.463200000000     0.290400000000     0          
T        Si     0.090850000000     0.486450000000     0.112666666667     0          
T        Si     0.150200000000     0.378800000000     0.211633333333     0          
O        O      0.055100000000     0.261500000000     0.409133333333     0          
O        O      0.050000000000     0.250000000000     0.500000000000     0          
O        O      0.000000000000     0.299500000000     0.454333333333     0          
O        O      0.064600000000     0.337900000000     0.465033333333     0          
O        O      0.088250000000     0.323350000000     0.605866666667     0          
O        O      0.125000000000     0.243650000000     0.583333333333     0          
O        O      0.094700000000     0.250000000000     0.333333333333     0          
O        O      0.125000000000     0.375000000000     0.333333333333     0          
O        O      0.125000000000     0.344850000000     0.416666666667     0          
T        Si     0.042350000000     0.286800000000     0.457066666667     0          
T        Si     0.090850000000     0.263550000000     0.612666666667     0          
T        Si     0.150200000000     0.371200000000     0.378300000000     0          
O        O      0.194900000000     0.238500000000     0.575800000000     0          
O        O      0.200000000000     0.250000000000     0.333333333333     0          
O        O      0.250000000000     0.200500000000     0.621000000000     0          
O        O      0.185400000000     0.162100000000     0.631700000000     0          
O        O      0.161750000000     0.176650000000     0.439200000000     0          
O        O      0.125000000000     0.256350000000     0.416666666667     0          
O        O      0.155300000000     0.250000000000     0.500000000000     0          
O        O      0.125000000000     0.125000000000     0.500000000000     0          
O        O      0.125000000000     0.155150000000     0.583333333333     0          
T        Si     0.207650000000     0.213200000000     0.623733333333     0          
T        Si     0.159150000000     0.236450000000     0.446000000000     0          
T        Si     0.099800000000     0.128800000000     0.544966666667     0          
O        O      0.055100000000     0.238500000000     0.590866666667     0          
O        O      0.000000000000     0.200500000000     0.545666666667     0          
O        O      0.064600000000     0.162100000000     0.534966666667     0          
O        O      0.088250000000     0.176650000000     0.394133333333     0          
O        O      0.125000000000     0.125000000000     0.333333333333     0          
T        Si     0.042350000000     0.213200000000     0.542933333333     0          
T        Si     0.090850000000     0.236450000000     0.387333333333     0          
T        Si     0.150200000000     0.128800000000     0.621700000000     0          
O        O      0.194900000000     0.261500000000     0.424200000000     0          
O        O      0.250000000000     0.299500000000     0.379000000000     0          
O        O      0.185400000000     0.337900000000     0.368300000000     0          
O        O      0.161750000000     0.323350000000     0.560800000000     0          
O        O      0.125000000000     0.375000000000     0.500000000000     0          
T        Si     0.207650000000     0.286800000000     0.376266666667     0          
T        Si     0.159150000000     0.263550000000     0.554000000000     0          
T        Si     0.099800000000     0.371200000000     0.455033333333     0          
O        O      0.444900000000     0.238500000000     0.590866666667     0          
O        O      0.450000000000     0.250000000000     0.500000000000     0          
O        O      0.435400000000     0.162100000000     0.534966666667     0          
O        O      0.411750000000     0.176650000000     0.394133333333     0          
O        O      0.375000000000     0.256350000000     0.416666666667     0          
O        O      0.405300000000     0.250000000000     0.333333333333     0          
O        O      0.375000000000     0.125000000000     0.333333333333     0          
O        O      0.375000000000     0.155150000000     0.583333333333     0          
T        Si     0.457650000000     0.213200000000     0.542933333333     0          
T        Si     0.409150000000     0.236450000000     0.387333333333     0          
T        Si     0.349800000000     0.128800000000     0.621700000000     0          
O        O      0.305100000000     0.261500000000     0.424200000000     0          
O        O      0.300000000000     0.250000000000     0.333333333333     0          
O        O      0.314600000000     0.337900000000     0.368300000000     0          
O        O      0.338250000000     0.323350000000     0.560800000000     0          
O        O      0.375000000000     0.243650000000     0.583333333333     0          
O        O      0.344700000000     0.250000000000     0.500000000000     0          
O        O      0.375000000000     0.375000000000     0.500000000000     0          
O        O      0.375000000000     0.344850000000     0.416666666667     0          
T        Si     0.292350000000     0.286800000000     0.376266666667     0          
T        Si     0.340850000000     0.263550000000     0.554000000000     0          
T        Si     0.400200000000     0.371200000000     0.455033333333     0          
O        O      0.444900000000     0.261500000000     0.409133333333     0          
O        O      0.435400000000     0.337900000000     0.465033333333     0          
O        O      0.411750000000     0.323350000000     0.605866666667     0          
O        O      0.375000000000     0.375000000000     0.333333333333     0          
T        Si     0.457650000000     0.286800000000     0.457066666667     0          
T        Si     0.409150000000     0.263550000000     0.612666666667     0          
T        Si     0.349800000000     0.371200000000     0.378300000000     0          
O        O      0.305100000000     0.238500000000     0.575800000000     0          
O        O      0.314600000000     0.162100000000     0.631700000000     0          
O        O      0.338250000000     0.176650000000     0.439200000000     0          
O        O      0.375000000000     0.125000000000     0.500000000000     0          
T        Si     0.292350000000     0.213200000000     0.623733333333     0          
T        Si     0.340850000000     0.236450000000     0.446000000000     0          
T        Si     0.400200000000     0.128800000000     0.544966666667     0          
O        O      0.305100000000     0.011500000000     0.409133333333     0          
O        O      0.300000000000     0.000000000000     0.500000000000     0          
O        O      0.250000000000     0.049500000000     0.454333333333     0          
O        O      0.314600000000     0.087900000000     0.465033333333     0          
O        O      0.338250000000     0.073350000000     0.605866666667     0          
O        O      0.375000000000     0.493650000000     0.583333333333     0          
O        O      0.344700000000     0.000000000000     0.333333333333     0          
O        O      0.375000000000     0.094850000000     0.416666666667     0          
T        Si     0.292350000000     0.036800000000     0.457066666667     0          
T        Si     0.340850000000     0.013550000000     0.612666666667     0          
T        Si     0.400200000000     0.121200000000     0.378300000000     0          
O        O      0.444900000000     0.488500000000     0.575800000000     0          
O        O      0.450000000000     0.000000000000     0.333333333333     0          
O        O      0.000000000000     0.450500000000     0.621000000000     0          
O        O      0.435400000000     0.412100000000     0.631700000000     0          
O        O      0.411750000000     0.426650000000     0.439200000000     0          
O        O      0.375000000000     0.006350000000     0.416666666667     0          
O        O      0.405300000000     0.000000000000     0.500000000000     0          
O        O      0.375000000000     0.405150000000     0.583333333333     0          
T        Si     0.457650000000     0.463200000000     0.623733333333     0          
T        Si     0.409150000000     0.486450000000     0.446000000000     0          
T        Si     0.349800000000     0.378800000000     0.544966666667     0          
O        O      0.305100000000     0.488500000000     0.590866666667     0          
O        O      0.250000000000     0.450500000000     0.545666666667     0          
O        O      0.314600000000     0.412100000000     0.534966666667     0          
O        O      0.338250000000     0.426650000000     0.394133333333     0          
T        Si     0.292350000000     0.463200000000     0.542933333333     0          
T        Si     0.340850000000     0.486450000000     0.387333333333     0          
T        Si     0.400200000000     0.378800000000     0.621700000000     0          
O        O      0.444900000000     0.011500000000     0.424200000000     0          
O        O      0.000000000000     0.049500000000     0.379000000000     0          
O        O      0.435400000000     0.087900000000     0.368300000000     0          
O        O      0.411750000000     0.073350000000     0.560800000000     0          
T        Si     0.457650000000     0.036800000000     0.376266666667     0          
T        Si     0.409150000000     0.013550000000     0.554000000000     0          
T        Si     0.349800000000     0.121200000000     0.455033333333     0          
O        O      0.194900000000     0.488500000000     0.590866666667     0          
O        O      0.200000000000     0.000000000000     0.500000000000     0          
O        O      0.185400000000     0.412100000000     0.534966666667     0          
O        O      0.161750000000     0.426650000000     0.394133333333     0          
O        O      0.125000000000     0.006350000000     0.416666666667     0          
O        O      0.155300000000     0.000000000000     0.333333333333     0          
O        O      0.125000000000     0.405150000000     0.583333333333     0          
T        Si     0.207650000000     0.463200000000     0.542933333333     0          
T        Si     0.159150000000     0.486450000000     0.387333333333     0          
T        Si     0.099800000000     0.378800000000     0.621700000000     0          
O        O      0.055100000000     0.011500000000     0.424200000000     0          
O        O      0.050000000000     0.000000000000     0.333333333333     0          
O        O      0.064600000000     0.087900000000     0.368300000000     0          
O        O      0.088250000000     0.073350000000     0.560800000000     0          
O        O      0.125000000000     0.493650000000     0.583333333333     0          
O        O      0.094700000000     0.000000000000     0.500000000000     0          
O        O      0.125000000000     0.094850000000     0.416666666667     0          
T        Si     0.042350000000     0.036800000000     0.376266666667     0          
T        Si     0.090850000000     0.013550000000     0.554000000000     0          
T        Si     0.150200000000     0.121200000000     0.455033333333     0          
O        O      0.194900000000     0.011500000000     0.409133333333     0          
O        O      0.185400000000     0.087900000000     0.465033333333     0          
O        O      0.161750000000     0.073350000000     0.605866666667     0          
T        Si     0.207650000000     0.036800000000     0.457066666667     0          
T        Si     0.159150000000     0.013550000000     0.612666666667     0          
T        Si     0.099800000000     0.121200000000     0.378300000000     0          
O        O      0.055100000000     0.488500000000     0.575800000000     0          
O        O      0.064600000000     0.412100000000     0.631700000000     0          
O        O      0.088250000000     0.426650000000     0.439200000000     0          
T        Si     0.042350000000     0.463200000000     0.623733333333     0          
T        Si     0.090850000000     0.486450000000     0.446000000000     0          
T        Si     0.150200000000     0.378800000000     0.544966666667     0          
O        O      0.055100000000     0.261500000000     0.742466666667     0          
O        O      0.050000000000     0.250000000000     0.833333333333     0          
O        O      0.000000000000     0.299500000000     0.787666666667     0          
O        O      0.064600000000     0.337900000000     0.798366666667     0          
O        O      0.088250000000     0.323350000000     0.939200000000     0          
O        O      0.125000000000     0.243650000000     0.916666666667     0          
O        O      0.094700000000     0.250000000000     0.666666666667     0          
O        O      0.125000000000     0.375000000000     0.666666666667     0          
O        O      0.125000000000     0.344850000000     0.750000000000     0          
T        Si     0.042350000000     0.286800000000     0.790400000000     0          
T        Si     0.090850000000     0.263550000000     0.946000000000     0          
T        Si     0.150200000000     0.371200000000     0.711633333333     0          
O        O      0.194900000000     0.238500000000     0.909133333333     0          
O        O      0.200000000000     0.250000000000     0.666666666667     0          
O        O      0.250000000000     0.200500000000     0.954333333333     0          
O        O      0.185400000000     0.162100000000     0.965033333333     0          
O        O      0.161750000000     0.176650000000     0.772533333333     0          
O        O      0.125000000000     0.256350000000     0.750000000000     0          
O        O      0.155300000000     0.250000000000     0.833333333333     0          
O        O      0.125000000000     0.125000000000     0.833333333333     0          
O        O      0.125000000000     0.155150000000     0.916666666667     0          
T        Si     0.207650000000     0.213200000000     0.957066666667     0          
T        Si     0.159150000000     0.236450000000     0.779333333333     0          
T        Si     0.099800000000     0.128800000000     0.878300000000     0          
O        O      0.055100000000     0.238500000000     0.924200000000     0          
O        O      0.000000000000     0.200500000000     0.879000000000     0          
O        O      0.064600000000     0.162100000000     0.868300000000     0          
O        O      0.088250000000     0.176650000000     0.727466666667     0          
O        O      0.125000000000     0.125000000000     0.666666666667     0          
T        Si     0.042350000000     0.213200000000     0.876266666667     0          
T        Si     0.090850000000     0.236450000000     0.720666666667     0          
T        Si     0.150200000000     0.128800000000     0.955033333333     0          
O        O      0.194900000000     0.261500000000     0.757533333333     0          
O        O      0.250000000000     0.299500000000     0.712333333333     0          
O        O      0.185400000000     0.337900000000     0.701633333333     0          
O        O      0.161750000000     0.323350000000     0.894133333333     0          
O        O      0.125000000000     0.375000000000     0.833333333333     0          
T        Si     0.207650000000     0.286800000000     0.709600000000     0          
T        Si     0.159150000000     0.263550000000     0.887333333333     0          
T        Si     0.099800000000     0.371200000000     0.788366666667     0          
O        O      0.444900000000     0.238500000000     0.924200000000     0          
O        O      0.450000000000     0.250000000000     0.833333333333     0          
O        O      0.435400000000     0.162100000000     0.868300000000     0          
O        O      0.411750000000     0.176650000000     0.727466666667     0          
O        O      0.375000000000     0.256350000000     0.750000000000     0          
O        O      0.405300000000     0.250000000000     0.666666666667     0          
O        O      0.375000000000     0.125000000000     0.666666666667     0          
O        O      0.375000000000     0.155150000000     0.916666666667     0          
T        Si     0.457650000000     0.213200000000     0.876266666667     0          
T        Si     0.409150000000     0.236450000000     0.720666666667     0          
T        Si     0.349800000000     0.128800000000     0.955033333333     0          
O        O      0.305100000000     0.261500000000     0.757533333333     0          
O        O      0.300000000000     0.250000000000     0.666666666667     0          
O        O      0.314600000000     0.337900000000     0.701633333333     0          
O        O      0.338250000000     0.323350000000     0.894133333333     0          
O        O      0.375000000000     0.243650000000     0.916666666667     0          
O        O      0.344700000000     0.250000000000     0.833333333333     0          
O        O      0.375000000000     0.375000000000     0.833333333333     0          
O        O      0.375000000000     0.344850000000     0.750000000000     0          
T        Si     0.292350000000     0.286800000000     0.709600000000     0          
T        Si     0.340850000000     0.263550000000     0.887333333333     0          
T        Si     0.400200000000     0.371200000000     0.788366666667     0          
O        O      0.444900000000     0.261500000000     0.742466666667     0          
O        O      0.435400000000     0.337900000000     0.798366666667     0          
O        O      0.411750000000     0.323350000000     0.939200000000     0          
O        O      0.375000000000     0.375000000000     0.666666666667     0          
T        Si     0.457650000000     0.286800000000     0.790400000000     0          
T        Si     0.409150000000     0.263550000000     0.946000000000     0          
T        Si     0.349800000000     0.371200000000     0.711633333333     0          
O        O      0.305100000000     0.238500000000     0.909133333333     0          
O        O      0.314600000000     0.162100000000     0.965033333333     0          
O        O      0.338250000000     0.176650000000     0.772533333333     0          
O        O      0.375000000000     0.125000000000     0.833333333333     0          
T        Si     0.292350000000     0.213200000000     0.957066666667     0          
T        Si     0.340850000000     0.236450000000     0.779333333333     0          
T        Si     0.400200000000     0.128800000000     0.878300000000     0          
O        O      0.305100000000     0.011500000000     0.742466666667     0          
O        O      0.300000000000     0.000000000000     0.833333333333     0          
O        O      0.250000000000     0.049500000000     0.787666666667     0          
O        O      0.314600000000     0.087900000000     0.798366666667     0          
O        O      0.338250000000     0.073350000000     0.939200000000     0          
O        O      0.375000000000     0.493650000000     0.916666666667     0          
O        O      0.344700000000     0.000000000000     0.666666666667     0          
O        O      0.375000000000     0.094850000000     0.750000000000     0          
T        Si     0.292350000000     0.036800000000     0.790400000000     0          
T        Si     0.340850000000     0.013550000000     0.946000000000     0          
T        Si     0.400200000000     0.121200000000     0.711633333333     0          
O        O      0.444900000000     0.488500000000     0.909133333333     0          
O        O      0.450000000000     0.000000000000     0.666666666667     0          
O        O      0.000000000000     0.450500000000     0.954333333333     0          
O        O      0.435400000000     0.412100000000     0.965033333333     0          
O        O      0.411750000000     0.426650000000     0.772533333333     0          
O        O      0.375000000000     0.006350000000     0.750000000000     0          
O        O      0.405300000000     0.000000000000     0.833333333333     0          
O        O      0.375000000000     0.405150000000     0.916666666667     0          
T        Si     0.457650000000     0.463200000000     0.957066666667     0          
T        Si     0.409150000000     0.486450000000     0.779333333333     0          
T        Si     0.349800000000     0.378800000000     0.878300000000     0          
O        O      0.305100000000     0.488500000000     0.924200000000     0          
O        O      0.250000000000     0.450500000000     0.879000000000     0          
O        O      0.314600000000     0.412100000000     0.868300000000     0          
O        O      0.338250000000     0.426650000000     0.727466666667     0          
T        Si     0.292350000000     0.463200000000     0.876266666667     0          
T        Si     0.340850000000     0.486450000000     0.720666666667     0          
T        Si     0.400200000000     0.378800000000     0.955033333333     0          
O        O      0.444900000000     0.011500000000     0.757533333333     0          
O        O      0.000000000000     0.049500000000     0.712333333333     0          
O        O      0.435400000000     0.087900000000     0.701633333333     0          
O        O      0.411750000000     0.073350000000     0.894133333333     0          
T        Si     0.457650000000     0.036800000000     0.709600000000     0          
T        Si     0.409150000000     0.013550000000     0.887333333333     0          
T        Si     0.349800000000     0.121200000000     0.788366666667     0          
O        O      0.194900000000     0.488500000000     0.924200000000     0          
O        O      0.200000000000     0.000000000000     0.833333333333     0          
O        O      0.185400000000     0.412100000000     0.868300000000     0          
O        O      0.161750000000     0.426650000000     0.727466666667     0          
O        O      0.125000000000     0.006350000000     0.750000000000     0          
O        O      0.155300000000     0.000000000000     0.666666666667     0          
O        O      0.125000000000     0.405150000000     0.916666666667     0          
T        Si     0.207650000000     0.463200000000     0.876266666667     0          
T        Si     0.159150000000     0.486450000000     0.720666666667     0          
T        Si     0.099800000000     0.378800000000     0.955033333333     0          
O        O      0.055100000000     0.011500000000     0.757533333333     0          
O        O      0.050000000000     0.000000000000     0.666666666667     0          
O        O      0.064600000000     0.087900000000     0.701633333333     0          
O        O      0.088250000000     0.073350000000     0.894133333333     0          
O        O      0.125000000000     0.493650000000     0.916666666667     0          
O        O      0.094700000000     0.000000000000     0.833333333333     0          
O        O      0.125000000000     0.094850000000     0.750000000000     0          
T        Si     0.042350000000     0.036800000000     0.709600000000     0          
T        Si     0.090850000000     0.013550000000     0.887333333333     0          
T        Si     0.150200000000     0.121200000000     0.788366666667     0          
O        O      0.194900000000     0.011500000000     0.742466666667     0          
O        O      0.185400000000     0.087900000000     0.798366666667     0          
O        O      0.161750000000     0.073350000000     0.939200000000     0          
T        Si     0.207650000000     0.036800000000     0.790400000000     0          
T        Si     0.159150000000     0.013550000000     0.946000000000     0          
T        Si     0.099800000000     0.121200000000     0.711633333333     0          
O        O      0.055100000000     0.488500000000     0.909133333333     0          
O        O      0.064600000000     0.412100000000     0.965033333333     0          
O        O      0.088250000000     0.426650000000     0.772533333333     0          
T        Si     0.042350000000     0.463200000000     0.957066666667     0          
T        Si     0.090850000000     0.486450000000     0.779333333333     0          
T        Si     0.150200000000     0.378800000000     0.878300000000     0          
O        O      0.055100000000     0.761500000000     0.075800000000     0          
O        O      0.050000000000     0.750000000000     0.166666666667     0          
O        O      0.000000000000     0.799500000000     0.121000000000     0          
O        O      0.064600000000     0.837900000000     0.131700000000     0          
O        O      0.088250000000     0.823350000000     0.272533333333     0          
O        O      0.125000000000     0.743650000000     0.250000000000     0          
O        O      0.094700000000     0.750000000000     0.000000000000     0          
O        O      0.125000000000     0.875000000000     0.000000000000     0          
O        O      0.125000000000     0.844850000000     0.083333333333     0          
T        Si     0.042350000000     0.786800000000     0.123733333333     0          
T        Si     0.090850000000     0.763550000000     0.279333333333     0          
T        Si     0.150200000000     0.871200000000     0.044966666667     0          
O        O      0.194900000000     0.738500000000     0.242466666667     0          
O        O      0.200000000000     0.750000000000     0.000000000000     0          
O        O      0.250000000000     0.700500000000     0.287666666667     0          
O        O      0.185400000000     0.662100000000     0.298366666667     0          
O        O      0.161750000000     0.676650000000     0.105866666667     0          
O        O      0.125000000000     0.756350000000     0.083333333333     0          
O        O      0.155300000000     0.750000000000     0.166666666667     0          
O        O      0.125000000000     0.625000000000     0.166666666667     0          
O        O      0.125000000000     0.655150000000     0.250000000000     0          
T        Si     0.207650000000     0.713200000000     0.290400000000     0          
T        Si     0.159150000000     0.736450000000     0.112666666667     0          
T        Si     0.099800000000     0.628800000000     0.211633333333     0          
O        O      0.055100000000     0.738500000000     0.257533333333     0          
O        O      0.000000000000     0.700500000000     0.212333333333     0          
O        O      0.064600000000     0.662100000000     0.201633333333     0          
O        O      0.088250000000     0.676650000000     0.060800000000     0          
O        O      0.125000000000     0.625000000000     0.000000000000     0          
T        Si     0.042350000000     0.713200000000     0.209600000000     0          
T        Si     0.090850000000     0.736450000000     0.054000000000     0          
T        Si     0.150200000000     0.628800000000     0.288366666667     0          
O        O      0.194900000000     0.761500000000     0.090866666667     0          
O        O      0.250000000000     0.799500000000     0.045666666667     0          
O        O      0.185400000000     0.837900000000     0.034966666667     0          
O        O      0.161750000000     0.823350000000     0.227466666667     0          
O        O      0.125000000000     0.875000000000     0.166666666667     0          
T        Si     0.207650000000     0.786800000000     0.042933333333     0          
T        Si     0.159150000000     0.763550000000     0.220666666667     0          
T        Si     0.099800000000     0.871200000000     0.121700000000     0          
O        O      0.444900000000     0.738500000000     0.257533333333     0          
O        O      0.450000000000     0.750000000000     0.166666666667     0          
O        O      0.435400000000     0.662100000000     0.201633333333     0          
O        O      0.411750000000     0.676650000000     0.060800000000     0          
O        O      0.375000000000     0.756350000000     0.083333333333     0          
O        O      0.405300000000     0.750000000000     0.000000000000     0          
O        O      0.375000000000     0.625000000000     0.000000000000     0          
O        O      0.375000000000     0.655150000000     0.250000000000     0          
T        Si     0.457650000000     0.713200000000     0.209600000000     0          
T        Si     0.409150000000     0.736450000000     0.054000000000     0          
T        Si     0.349800000000     0.628800000000     0.288366666667     0          
O        O      0.305100000000     0.761500000000     0.090866666667     0          
O        O      0.300000000000     0.750000000000     0.000000000000     0          
O        O      0.314600000000     0.837900000000     0.034966666667     0          
O        O      0.338250000000     0.823350000000     0.227466666667     0          
O        O      0.375000000000     0.743650000000     0.250000000000     0          
O        O      0.344700000000     0.750000000000     0.166666666667     0          
O        O      0.375000000000     0.875000000000     0.166666666667     0          
O        O      0.375000000000     0.844850000000     0.083333333333     0          
T        Si     0.292350000000     0.786800000000     0.042933333333     0          
T        Si     0.340850000000     0.763550000000     0.220666666667     0          
T        Si     0.400200000000     0.871200000000     0.121700000000     0          
O        O      0.444900000000     0.761500000000     0.075800000000     0          
O        O      0.435400000000     0.837900000000     0.131700000000     0          
O        O      0.411750000000     0.823350000000     0.272533333333     0          
O        O      0.375000000000     0.875000000000     0.000000000000     0          
T        Si     0.457650000000     0.786800000000     0.123733333333     0          
T        Si     0.409150000000     0.763550000000     0.279333333333     0          
T        Si     0.349800000000     0.871200000000     0.044966666667     0          
O        O      0.305100000000     0.738500000000     0.242466666667     0          
O        O      0.314600000000     0.662100000000     0.298366666667     0          
O        O      0.338250000000     0.676650000000     0.105866666667     0          
O        O      0.375000000000     0.625000000000     0.166666666667     0          
T        Si     0.292350000000     0.713200000000     0.290400000000     0          
T        Si     0.340850000000     0.736450000000     0.112666666667     0          
T        Si     0.400200000000     0.628800000000     0.211633333333     0          
O        O      0.305100000000     0.511500000000     0.075800000000     0          
O        O      0.300000000000     0.500000000000     0.166666666667     0          
O        O      0.250000000000     0.549500000000     0.121000000000     0          
O        O      0.314600000000     0.587900000000     0.131700000000     0          
O        O      0.338250000000     0.573350000000     0.272533333333     0          
O        O      0.375000000000     0.993650000000     0.250000000000     0          
O        O      0.344700000000     0.500000000000     0.000000000000     0          
O        O      0.375000000000     0.594850000000     0.083333333333     0          
T        Si     0.292350000000     0.536800000000     0.123733333333     0          
T        Si     0.340850000000     0.513550000000     0.279333333333     0          
T        Si     0.400200000000     0.621200000000     0.044966666667     0          
O        O      0.444900000000     0.988500000000     0.242466666667     0          
O        O      0.450000000000     0.500000000000     0.000000000000     0          
O        O      0.000000000000     0.950500000000     0.287666666667     0          
O        O      0.435400000000     0.912100000000     0.298366666667     0          
O        O      0.411750000000     0.926650000000     0.105866666667     0          
O        O      0.375000000000     0.506350000000     0.083333333333     0          
O        O      0.405300000000     0.500000000000     0.166666666667     0          
O        O      0.375000000000     0.905150000000     0.250000000000     0          
T        Si     0.457650000000     0.963200000000     0.290400000000     0          
T        Si     0.409150000000     0.986450000000     0.112666666667     0          
T        Si     0.349800000000     0.878800000000     0.211633333333     0          
O        O      0.305100000000     0.988500000000     0.257533333333     0          
O        O      0.250000000000     0.950500000000     0.212333333333     0          
O        O      0.314600000000     0.912100000000     0.201633333333     0          
O        O      0.338250000000     0.926650000000     0.060800000000     0          
T        Si     0.292350000000     0.963200000000     0.209600000000     0          
T        Si     0.340850000000     0.986450000000     0.054000000000     0          
T        Si     0.400200000000     0.878800000000     0.288366666667     0          
O        O      0.444900000000     0.511500000000     0.090866666667     0          
O        O      0.000000000000     0.549500000000     0.045666666667     0          
O        O      0.435400000000     0.587900000000     0.034966666667     0          
O        O      0.411750000000     0.573350000000     0.227466666667     0          
T        Si     0.457650000000     0.536800000000     0.042933333333     0          
T        Si     0.409150000000     0.513550000000     0.220666666667     0          
T        Si     0.349800000000     0.621200000000     0.121700000000     0          
O        O      0.194900000000     0.988500000000     0.257533333333     0          
O        O      0.200000000000     0.500000000000     0.166666666667     0          
O        O      0.185400000000     0.912100000000     0.201633333333     0          
O        O      0.161750000000     0.926650000000     0.060800000000     0          
O        O      0.125000000000     0.506350000000     0.083333333333     0          
O        O      0.155300000000     0.500000000000     0.000000000000     0          
O        O      0.125000000000     0.905150000000     0.250000000000     0          
T        Si     0.207650000000     0.963200000000     0.209600000000     0          
T        Si     0.159150000000     0.986450000000     0.054000000000     0          
T        Si     0.099800000000     0.878800000000     0.288366666667     0          
O        O      0.055100000000     0.511500000000     0.090866666667     0          
O        O      0.050000000000     0.500000000000     0.000000000000     0          
O        O      0.064600000000     0.587900000000     0.034966666667     0          
O        O      0.088250000000     0.573350000000     0.227466666667     0          
O        O      0.125000000000     0.993650000000     0.250000000000     0          
O        O      0.094700000000     0.500000000000     0.166666666667     0          
O        O      0.125000000000     0.594850000000     0.083333333333     0          
T        Si     0.042350000000     0.536800000000     0.042933333333     0          
T        Si     0.090850000000     0.513550000000     0.220666666667     0          
T        Si     0.150200000000     0.621200000000     0.121700000000     0          
O        O      0.194900000000     0.511500000000     0.075800000000     0          
O        O      0.185400000000     0.587900000000     0.131700000000     0          
O        O      0.161750000000     0.573350000000     0.272533333333     0          
T        Si     0.207650000000     0.536800000000     0.123733333333     0          
T        Si     0.159150000000     0.513550000000     0.279333333333     0          
T        Si     0.099800000000     0.621200000000     0.044966666667     0          
O        O      0.055100000000     0.988500000000     0.242466666667     0          
O        O      0.064600000000     0.912100000000     0.298366666667     0          
O        O      0.088250000000     0.926650000000     0.105866666667     0          
T        Si     0.042350000000     0.963200000000     0.290400000000     0          
T        Si     0.090850000000     0.986450000000     0.112666666667     0          
T        Si     0.150200000000     0.878800000000     0.211633333333     0          
O        O      0.055100000000     0.761500000000     0.409133333333     0          
O        O      0.050000000000     0.750000000000     0.500000000000     0          
O        O      0.000000000000     0.799500000000     0.454333333333     0          
O        O      0.064600000000     0.837900000000     0.465033333333     0          
O        O      0.088250000000     0.823350000000     0.605866666667     0          
O        O      0.125000000000     0.743650000000     0.583333333333     0          
O        O      0.094700000000     0.750000000000     0.333333333333     0          
O        O      0.125000000000     0.875000000000     0.333333333333     0          
O        O      0.125000000000     0.844850000000     0.416666666667     0          
T        Si     0.042350000000     0.786800000000     0.457066666667     0          
T        Si     0.090850000000     0.763550000000     0.612666666667     0          
T        Si     0.150200000000     0.871200000000     0.378300000000     0          
O        O      0.194900000000     0.738500000000     0.575800000000     0          
O        O      0.200000000000     0.750000000000     0.333333333333     0          
O        O      0.250000000000     0.700500000000     0.621000000000     0          
O        O      0.185400000000     0.662100000000     0.631700000000     0          
O        O      0.161750000000     0.676650000000     0.439200000000     0          
O        O      0.125000000000     0.756350000000     0.416666666667     0          
O        O      0.155300000000     0.750000000000     0.500000000000     0          
O        O      0.125000000000     0.625000000000     0.500000000000     0          
O        O      0.125000000000     0.655150000000     0.583333333333     0          
T        Si     0.207650000000     0.713200000000     0.623733333333     0          
T        Si     0.159150000000     0.736450000000     0.446000000000     0          
T        Si     0.099800000000     0.628800000000     0.544966666667     0          
O        O      0.055100000000     0.738500000000     0.590866666667     0          
O        O      0.000000000000     0.700500000000     0.545666666667     0          
O        O      0.064600000000     0.662100000000     0.534966666667     0          
O        O      0.088250000000     0.676650000000     0.394133333333     0          
O        O      0.125000000000     0.625000000000     0.333333333333     0          
T        Si     0.042350000000     0.713200000000     0.542933333333     0          
T        Si     0.090850000000     0.736450000000     0.387333333333     0          
T        Si     0.150200000000     0.628800000000     0.621700000000     0          
O        O      0.194900000000     0.761500000000     0.424200000000     0          
O        O      0.250000000000     0.799500000000     0.379000000000     0          
O        O      0.185400000000     0.837900000000     0.368300000000     0          
O        O      0.161750000000     0.823350000000     0.560800000000     0          
O        O      0.125000000000     0.875000000000     0.500000000000     0          
T        Si     0.207650000000     0.786800000000     0.376266666667     0          
T        Si     0.159150000000     0.763550000000     0.554000000000     0          
T        Si     0.099800000000     0.871200000000     0.455033333333     0          
O        O      0.444900000000     0.738500000000     0.590866666667     0          
O        O      0.450000000000     0.750000000000     0.500000000000     0          
O        O      0.435400000000     0.662100000000     0.534966666667     0          
O        O      0.411750000000     0.676650000000     0.394133333333     0          
O        O      0.375000000000     0.756350000000     0.416666666667     0          
O        O      0.405300000000     0.750000000000     0.333333333333     0          
O        O      0.375000000000     0.625000000000     0.333333333333     0          
O        O      0.375000000000     0.655150000000     0.583333333333     0          
T        Si     0.457650000000     0.713200000000     0.542933333333     0          
T        Si     0.409150000000     0.736450000000     0.387333333333     0          
T        Si     0.349800000000     0.628800000000     0.621700000000     0          
O        O      0.305100000000     0.761500000000     0.424200000000     0          
O        O      0.300000000000     0.750000000000     0.333333333333     0          
O        O      0.314600000000     0.837900000000     0.368300000000     0          
O        O      0.338250000000     0.823350000000     0.560800000000     0          
O        O      0.375000000000     0.743650000000     0.583333333333     0          
O        O      0.344700000000     0.750000000000     0.500000000000     0          
O        O      0.375000000000     0.875000000000     0.500000000000     0          
O        O      0.375000000000     0.844850000000     0.416666666667     0          
T        Si     0.292350000000     0.786800000000     0.376266666667     0          
T        Si     0.340850000000     0.763550000000     0.554000000000     0          
T        Si     0.400200000000     0.871200000000     0.455033333333     0          
O        O      0.444900000000     0.761500000000     0.409133333333     0          
O        O      0.435400000000     0.837900000000     0.465033333333     0          
O        O      0.411750000000     0.823350000000     0.605866666667     0          
O        O      0.375000000000     0.875000000000     0.333333333333     0          
T        Si     0.457650000000     0.786800000000     0.457066666667     0          
T        Si     0.409150000000     0.763550000000     0.612666666667     0          
T        Si     0.349800000000     0.871200000000     0.378300000000     0          
O        O      0.305100000000     0.738500000000     0.575800000000     0          
O        O      0.314600000000     0.662100000000     0.631700000000     0          
O        O      0.338250000000     0.676650000000     0.439200000000     0          
O        O      0.375000000000     0.625000000000     0.500000000000     0          
T        Si     0.292350000000     0.713200000000     0.623733333333     0          
T        Si     0.340850000000     0.736450000000     0.446000000000     0          
T        Si     0.400200000000     0.628800000000     0.544966666667     0          
O        O      0.305100000000     0.511500000000     0.409133333333     0          
O        O      0.300000000000     0.500000000000     0.500000000000     0          
O        O      0.250000000000     0.549500000000     0.454333333333     0          
O        O      0.314600000000     0.587900000000     0.465033333333     0          
O        O      0.338250000000     0.573350000000     0.605866666667     0          
O        O      0.375000000000     0.993650000000     0.583333333333     0          
O        O      0.344700000000     0.500000000000     0.333333333333     0          
O        O      0.375000000000     0.594850000000     0.416666666667     0          
T        Si     0.292350000000     0.536800000000     0.457066666667     0          
T        Si     0.340850000000     0.513550000000     0.612666666667     0          
T        Si     0.400200000000     0.621200000000     0.378300000000     0          
O        O      0.444900000000     0.988500000000     0.575800000000     0          
O        O      0.450000000000     0.500000000000     0.333333333333     0          
O        O      0.000000000000     0.950500000000     0.621000000000     0          
O        O      0.435400000000     0.912100000000     0.631700000000     0          
O        O      0.411750000000     0.926650000000     0.439200000000     0          
O        O      0.375000000000     0.506350000000     0.416666666667     0          
O        O      0.405300000000     0.500000000000     0.500000000000     0          
O        O      0.375000000000     0.905150000000     0.583333333333     0          
T        Si     0.457650000000     0.963200000000     0.623733333333     0          
T        Si     0.409150000000     0.986450000000     0.446000000000     0          
T        Si     0.349800000000     0.878800000000     0.544966666667     0          
O        O      0.305100000000     0.988500000000     0.590866666667     0          
O        O      0.250000000000     0.950500000000     0.545666666667     0          
O        O      0.314600000000     0.912100000000     0.534966666667     0          
O        O      0.338250000000     0.926650000000     0.394133333333     0          
T        Si     0.292350000000     0.963200000000     0.542933333333     0          
T        Si     0.340850000000     0.986450000000     0.387333333333     0          
T        Si     0.400200000000     0.878800000000     0.621700000000     0          
O        O      0.444900000000     0.511500000000     0.424200000000     0          
O        O      0.000000000000     0.549500000000     0.379000000000     0          
O        O      0.435400000000     0.587900000000     0.368300000000     0          
O        O      0.411750000000     0.573350000000     0.560800000000     0          
T        Si     0.457650000000     0.536800000000     0.376266666667     0          
T        Si     0.409150000000     0.513550000000     0.554000000000     0          
T        Si     0.349800000000     0.621200000000     0.455033333333     0          
O        O      0.194900000000     0.988500000000     0.590866666667     0          
O        O      0.200000000000     0.500000000000     0.500000000000     0          
O        O      0.185400000000     0.912100000000     0.534966666667     0          
O        O      0.161750000000     0.926650000000     0.394133333333     0          
O        O      0.125000000000     0.506350000000     0.416666666667     0          
O        O      0.155300000000     0.500000000000     0.333333333333     0          
O        O      0.125000000000     0.905150000000     0.583333333333     0          
T        Si     0.207650000000     0.963200000000     0.542933333333     0          
T        Si     0.159150000000     0.986450000000     0.387333333333     0          
T        Si     0.099800000000     0.878800000000     0.621700000000     0          
O        O      0.055100000000     0.511500000000     0.424200000000     0          
O        O      0.050000000000     0.500000000000     0.333333333333     0          
O        O      0.064600000000     0.587900000000     0.368300000000     0          
O        O      0.088250000000     0.573350000000     0.560800000000     0          
O        O      0.125000000000     0.993650000000     0.583333333333     0          
O        O      0.094700000000     0.500000000000     0.500000000000     0          
O        O      0.125000000000     0.594850000000     0.416666666667     0          
T        Si     0.042350000000     0.536800000000     0.376266666667     0          
T        Si     0.090850000000     0.513550000000     0.554000000000     0          
T        Si     0.150200000000     0.621200000000     0.455033333333     0          
O        O      0.194900000000     0.511500000000     0.409133333333     0          
O        O      0.185400000000     0.587900000000     0.465033333333     0          
O        O      0.161750000000     0.573350000000     0.605866666667     0          
T        Si     0.207650000000     0.536800000000     0.457066666667     0          
T        Si     0.159150000000     0.513550000000     0.612666666667     0          
T        Si     0.099800000000     0.621200000000     0.378300000000     0          
O        O      0.055100000000     0.988500000000     0.575800000000     0          
O        O      0.064600000000     0.912100000000     0.631700000000     0          
O        O      0.088250000000     0.926650000000     0.439200000000     0          
T        Si     0.042350000000     0.963200000000     0.623733333333     0          
T        Si     0.090850000000     0.986450000000     0.446000000000     0          
T        Si     0.150200000000     0.878800000000     0.544966666667     0          
O        O      0.055100000000     0.761500000000     0.742466666667     0          
O        O      0.050000000000     0.750000000000     0.833333333333     0          
O        O      0.000000000000     0.799500000000     0.787666666667     0          
O        O      0.064600000000     0.837900000000     0.798366666667     0          
O        O      0.088250000000     0.823350000000     0.939200000000     0          
O        O      0.125000000000     0.743650000000     0.916666666667     0          
O        O      0.094700000000     0.750000000000     0.666666666667     0          
O        O      0.125000000000     0.875000000000     0.666666666667     0          
O        O      0.125000000000     0.844850000000     0.750000000000     0          
T        Si     0.042350000000     0.786800000000     0.790400000000     0          
T        Si     0.090850000000     0.763550000000     0.946000000000     0          
T        Si     0.150200000000     0.871200000000     0.711633333333     0          
O        O      0.194900000000     0.738500000000     0.909133333333     0          
O        O      0.200000000000     0.750000000000     0.666666666667     0          
O        O      0.250000000000     0.700500000000     0.954333333333     0          
O        O      0.185400000000     0.662100000000     0.965033333333     0          
O        O      0.161750000000     0.676650000000     0.772533333333     0          
O        O      0.125000000000     0.756350000000     0.750000000000     0          
O        O      0.155300000000     0.750000000000     0.833333333333     0          
O        O      0.125000000000     0.625000000000     0.833333333333     0          
O        O      0.125000000000     0.655150000000     0.916666666667     0          
T        Si     0.207650000000     0.713200000000     0.957066666667     0          
T        Si     0.159150000000     0.736450000000     0.779333333333     0          
T        Si     0.099800000000     0.628800000000     0.878300000000     0          
O        O      0.055100000000     0.738500000000     0.924200000000     0          
O        O      0.000000000000     0.700500000000     0.879000000000     0          
O        O      0.064600000000     0.662100000000     0.868300000000     0          
O        O      0.088250000000     0.676650000000     0.727466666667     0          
O        O      0.125000000000     0.625000000000     0.666666666667     0          
T        Si     0.042350000000     0.713200000000     0.876266666667     0          
T        Si     0.090850000000     0.736450000000     0.720666666667     0          
T        Si     0.150200000000     0.628800000000     0.955033333333     0          
O        O      0.194900000000     0.761500000000     0.757533333333     0          
O        O      0.250000000000     0.799500000000     0.712333333333     0          
O        O      0.185400000000     0.837900000000     0.701633333333     0          
O        O      0.161750000000     0.823350000000     0.894133333333     0          
O        O      0.125000000000     0.875000000000     0.833333333333     0          
T        Si     0.207650000000     0.786800000000     0.709600000000     0          
T        Si     0.159150000000     0.763550000000     0.887333333333     0          
T        Si     0.099800000000     0.871200000000     0.788366666667     0          
O        O      0.444900000000     0.738500000000     0.924200000000     0          
O        O      0.450000000000     0.750000000000     0.833333333333     0          
O        O      0.435400000000     0.662100000000     0.868300000000     0          
O        O      0.411750000000     0.676650000000     0.727466666667     0          
O        O      0.375000000000     0.756350000000     0.750000000000     0          
O        O      0.405300000000     0.750000000000     0.666666666667     0          
O        O      0.375000000000     0.625000000000     0.666666666667     0          
O        O      0.375000000000     0.655150000000     0.916666666667     0          
T        Si     0.457650000000     0.713200000000     0.876266666667     0          
T        Si     0.409150000000     0.736450000000     0.720666666667     0          
T        Si     0.349800000000     0.628800000000     0.955033333333     0          
O        O      0.305100000000     0.761500000000     0.757533333333     0          
O        O      0.300000000000     0.750000000000     0.666666666667     0          
O        O      0.314600000000     0.837900000000     0.701633333333     0          
O        O      0.338250000000     0.823350000000     0.894133333333     0          
O        O      0.375000000000     0.743650000000     0.916666666667     0          
O        O      0.344700000000     0.750000000000     0.833333333333     0          
O        O      0.375000000000     0.875000000000     0.833333333333     0          
O        O      0.375000000000     0.844850000000     0.750000000000     0          
T        Si     0.292350000000     0.786800000000     0.709600000000     0          
T        Si     0.340850000000     0.763550000000     0.887333333333     0          
T        Si     0.400200000000     0.871200000000     0.788366666667     0          
O        O      0.444900000000     0.761500000000     0.742466666667     0          
O        O      0.435400000000     0.837900000000     0.798366666667     0          
O        O      0.411750000000     0.823350000000     0.939200000000     0          
O        O      0.375000000000     0.875000000000     0.666666666667     0          
T        Si     0.457650000000     0.786800000000     0.790400000000     0          
T        Si     0.409150000000     0.763550000000     0.946000000000     0          
T        Si     0.349800000000     0.871200000000     0.711633333333     0          
O        O      0.305100000000     0.738500000000     0.909133333333     0          
O        O      0.314600000000     0.662100000000     0.965033333333     0          
O        O      0.338250000000     0.676650000000     0.772533333333     0          
O        O      0.375000000000     0.625000000000     0.833333333333     0          
T        Si     0.292350000000     0.713200000000     0.957066666667     0          
T        Si     0.340850000000     0.736450000000     0.779333333333     0          
T        Si     0.400200000000     0.628800000000     0.878300000000     0          
O        O      0.305100000000     0.511500000000     0.742466666667     0          
O        O      0.300000000000     0.500000000000     0.833333333333     0          
O        O      0.250000000000     0.549500000000     0.787666666667     0          
O        O      0.314600000000     0.587900000000     0.798366666667     0          
O        O      0.338250000000     0.573350000000     0.939200000000     0          
O        O      0.375000000000     0.993650000000     0.916666666667     0          
O        O      0.344700000000     0.500000000000     0.666666666667     0          
O        O      0.375000000000     0.594850000000     0.750000000000     0          
T        Si     0.292350000000     0.536800000000     0.790400000000     0          
T        Si     0.340850000000     0.513550000000     0.946000000000     0          
T        Si     0.400200000000     0.621200000000     0.711633333333     0          
O        O      0.444900000000     0.988500000000     0.909133333333     0          
O        O      0.450000000000     0.500000000000     0.666666666667     0          
O        O      0.000000000000     0.950500000000     0.954333333333     0          
O        O      0.435400000000     0.912100000000     0.965033333333     0          
O        O      0.411750000000     0.926650000000     0.772533333333     0          
O        O      0.375000000000     0.506350000000     0.750000000000     0          
O        O      0.405300000000     0.500000000000     0.833333333333     0          
O        O      0.375000000000     0.905150000000     0.916666666667     0          
T        Si     0.457650000000     0.963200000000     0.957066666667     0          
T        Si     0.409150000000     0.986450000000     0.779333333333     0          
T        Si     0.349800000000     0.878800000000     0.878300000000     0          
O        O      0.305100000000     0.988500000000     0.924200000000     0          
O        O      0.250000000000     0.950500000000     0.879000000000     0          
O        O      0.314600000000     0.912100000000     0.868300000000     0          
O        O      0.338250000000     0.926650000000     0.727466666667     0          
T        Si     0.292350000000     0.963200000000     0.876266666667     0          
T        Si     0.340850000000     0.986450000000     0.720666666667     0          
T        Si     0.400200000000     0.878800000000     0.955033333333     0          
O        O      0.444900000000     0.511500000000     0.757533333333     0          
O        O      0.000000000000     0.549500000000     0.712333333333     0          
O        O      0.435400000000     0.587900000000     0.701633333333     0          
O        O      0.411750000000     0.573350000000     0.894133333333     0          
T        Si     0.457650000000     0.536800000000     0.709600000000     0          
T        Si     0.409150000000     0.513550000000     0.887333333333     0          
T        Si     0.349800000000     0.621200000000     0.788366666667     0          
O        O      0.194900000000     0.988500000000     0.924200000000     0          
O        O      0.200000000000     0.500000000000     0.833333333333     0          
O        O      0.185400000000     0.912100000000     0.868300000000     0          
O        O      0.161750000000     0.926650000000     0.727466666667     0          
O        O      0.125000000000     0.506350000000     0.750000000000     0          
O        O      0.155300000000     0.500000000000     0.666666666667     0          
O        O      0.125000000000     0.905150000000     0.916666666667     0          
T        Si     0.207650000000     0.963200000000     0.876266666667     0          
T        Si     0.159150000000     0.986450000000     0.720666666667     0          
T        Si     0.099800000000     0.878800000000     0.955033333333     0          
O        O      0.055100000000     0.511500000000     0.757533333333     0          
O        O      0.050000000000     0.500000000000     0.666666666667     0          
O        O      0.064600000000     0.587900000000     0.701633333333     0          
O        O      0.088250000000     0.573350000000     0.894133333333     0          
O        O      0.125000000000     0.993650000000     0.916666666667     0          
O        O      0.094700000000     0.500000000000     0.833333333333     0          
O        O      0.125000000000     0.594850000000     0.750000000000     0          
T        Si     0.042350000000     0.536800000000     0.709600000000     0          
T        Si     0.090850000000     0.513550000000     0.887333333333     0          
T        Si     0.150200000000     0.621200000000     0.788366666667     0          
O        O      0.194900000000     0.511500000000     0.742466666667     0          
O        O      0.185400000000     0.587900000000     0.798366666667     0          
O        O      0.161750000000     0.573350000000     0.939200000000     0          
T        Si     0.207650000000     0.536800000000     0.790400000000     0          
T        Si     0.159150000000     0.513550000000     0.946000000000     0          
T        Si     0.099800000000     0.621200000000     0.711633333333     0          
O        O      0.055100000000     0.988500000000     0.909133333333     0          
O        O      0.064600000000     0.912100000000     0.965033333333     0          
O        O      0.088250000000     0.926650000000     0.772533333333     0          
T        Si     0.042350000000     0.963200000000     0.957066666667     0          
T        Si     0.090850000000     0.986450000000     0.779333333333     0          
T        Si     0.150200000000     0.878800000000     0.878300000000     0          
O        O      0.555100000000     0.261500000000     0.075800000000     0          
O        O      0.550000000000     0.250000000000     0.166666666667     0          
O        O      0.500000000000     0.299500000000     0.121000000000     0          
O        O      0.564600000000     0.337900000000     0.131700000000     0          
O        O      0.588250000000     0.323350000000     0.272533333333     0          
O        O      0.625000000000     0.243650000000     0.250000000000     0          
O        O      0.594700000000     0.250000000000     0.000000000000     0          
O        O      0.625000000000     0.375000000000     0.000000000000     0          
O        O      0.625000000000     0.344850000000     0.083333333333     0          
T        Si     0.542350000000     0.286800000000     0.123733333333     0          
T        Si     0.590850000000     0.263550000000     0.279333333333     0          
T        Si     0.650200000000     0.371200000000     0.044966666667     0          
O        O      0.694900000000     0.238500000000     0.242466666667     0          
O        O      0.700000000000     0.250000000000     0.000000000000     0          
O        O      0.750000000000     0.200500000000     0.287666666667     0          
O        O      0.685400000000     0.162100000000     0.298366666667     0          
O        O      0.661750000000     0.176650000000     0.105866666667     0          
O        O      0.625000000000     0.256350000000     0.083333333333     0          
O        O      0.655300000000     0.250000000000     0.166666666667     0          
O        O      0.625000000000     0.125000000000     0.166666666667     0          
O        O      0.625000000000     0.155150000000     0.250000000000     0          
T        Si     0.707650000000     0.213200000000     0.290400000000     0          
T        Si     0.659150000000     0.236450000000     0.112666666667     0          
T        Si     0.599800000000     0.128800000000     0.211633333333     0          
O        O      0.555100000000     0.238500000000     0.257533333333     0          
O        O      0.500000000000     0.200500000000     0.212333333333     0          
O        O      0.564600000000     0.162100000000     0.201633333333     0          
O        O      0.588250000000     0.176650000000     0.060800000000     0          
O        O      0.625000000000     0.125000000000     0.000000000000     0          
T        Si     0.542350000000     0.213200000000     0.209600000000     0          
T        Si     0.590850000000     0.236450000000     0.054000000000     0          
T        Si     0.650200000000     0.128800000000     0.288366666667     0          
O        O      0.694900000000     0.261500000000     0.090866666667     0          
O        O      0.750000000000     0.299500000000     0.045666666667     0          
O        O      0.685400000000     0.337900000000     0.034966666667     0          
O        O      0.661750000000     0.323350000000     0.227466666667     0          
O        O      0.625000000000     0.375000000000     0.166666666667     0          
T        Si     0.707650000000     0.286800000000     0.042933333333     0          
T        Si     0.659150000000     0.263550000000     0.220666666667     0          
T        Si     0.599800000000     0.371200000000     0.121700000000     0          
O        O      0.944900000000     0.238500000000     0.257533333333     0          
O        O      0.950000000000     0.250000000000     0.166666666667     0          
O        O      0.935400000000     0.162100000000     0.201633333333     0          
O        O      0.911750000000     0.176650000000     0.060800000000     0          
O        O      0.875000000000     0.256350000000     0.083333333333     0          
O        O      0.905300000000     0.250000000000     0.000000000000     0          
O        O      0.875000000000     0.125000000000     0.000000000000     0          
O        O      0.875000000000     0.155150000000     0.250000000000     0          
T        Si     0.957650000000     0.213200000000     0.209600000000     0          
T        Si     0.909150000000     0.236450000000     0.054000000000     0          
T        Si     0.849800000000     0.128800000000     0.288366666667     0          
O        O      0.805100000000     0.261500000000     0.090866666667     0          
O        O      0.800000000000     0.250000000000     0.000000000000     0          
O        O      0.814600000000     0.337900000000     0.034966666667     0          
O        O      0.838250000000     0.323350000000     0.227466666667     0          
O        O      0.875000000000     0.243650000000     0.250000000000     0          
O        O      0.844700000000     0.250000000000     0.166666666667     0          
O        O      0.875000000000     0.375000000000     0.166666666667     0          
O        O      0.875000000000     0.344850000000     0.083333333333     0          
T        Si     0.792350000000     0.286800000000     0.042933333333     0          
T        Si     0.840850000000     0.263550000000     0.220666666667     0          
T        Si     0.900200000000     0.371200000000     0.121700000000     0          
O        O      0.944900000000     0.261500000000     0.075800000000     0          
O        O      0.935400000000     0.337900000000     0.131700000000     0          
O        O      0.911750000000     0.323350000000     0.272533333333     0          
O        O      0.875000000000     0.375000000000     0.000000000000     0          
T        Si     0.957650000000     0.286800000000     0.123733333333     0          
T        Si     0.909150000000     0.263550000000     0.279333333333     0          
T        Si     0.849800000000     0.371200000000     0.044966666667     0          
O        O      0.805100000000     0.238500000000     0.242466666667     0          
O        O      0.814600000000     0.162100000000     0.298366666667     0          
O        O      0.838250000000     0.176650000000     0.105866666667     0          
O        O      0.875000000000     0.125000000000     0.166666666667     0          
T        Si     0.792350000000     0.213200000000     0.290400000000     0          
T        Si     0.840850000000     0.236450000000     0.112666666667     0          
T        Si     0.900200000000     0.128800000000     0.211633333333     0          
O        O      0.805100000000     0.011500000000     0.075800000000     0          
O        O      0.800000000000     0.000000000000     0.166666666667     0          
O        O      0.750000000000     0.049500000000     0.121000000000     0          
O        O      0.814600000000     0.087900000000     0.131700000000     0          
O        O      0.838250000000     0.073350000000     0.272533333333     0          
O        O      0.875000000000     0.493650000000     0.250000000000     0          
O        O      0.844700000000     0.000000000000     0.000000000000     0          
O        O      0.875000000000     0.094850000000     0.083333333333     0          
T        Si     0.792350000000     0.036800000000     0.123733333333     0          
T        Si     0.840850000000     0.013550000000     0.279333333333     0          
T        Si     0.900200000000     0.121200000000     0.044966666667     0          
O        O      0.944900000000     0.488500000000     0.242466666667     0          
O        O      0.950000000000     0.000000000000     0.000000000000     0          
O        O      0.500000000000     0.450500000000     0.287666666667     0          
O        O      0.935400000000     0.412100000000     0.298366666667     0          
O        O      0.911750000000     0.426650000000     0.105866666667     0          
O        O      0.875000000000     0.006350000000     0.083333333333     0          
O        O      0.905300000000     0.000000000000     0.166666666667     0          
O        O      0.875000000000     0.405150000000     0.250000000000     0          
T        Si     0.957650000000     0.463200000000     0.290400000000     0          
T        Si     0.909150000000     0.486450000000     0.112666666667     0          
T        Si     0.849800000000     0.378800000000     0.211633333333     0          
O        O      0.805100000000     0.488500000000     0.257533333333     0          
O        O      0.750000000000     0.450500000000     0.212333333333     0          
O        O      0.814600000000     0.412100000000     0.201633333333     0          
O        O      0.838250000000     0.426650000000     0.060800000000     0          
T        Si     0.792350000000     0.463200000000     0.209600000000     0          
T        Si     0.840850000000     0.486450000000     0.054000000000     0          
T        Si     0.900200000000     0.378800000000     0.288366666667     0          
O        O      0.944900000000     0.011500000000     0.090866666667     0          
O        O      0.500000000000     0.049500000000     0.045666666667     0          
O        O      0.935400000000     0.087900000000     0.034966666667     0          
O        O      0.911750000000     0.073350000000     0.227466666667     0          
T        Si     0.957650000000     0.036800000000     0.042933333333     0          
T        Si     0.909150000000     0.013550000000     0.220666666667     0          
T        Si     0.849800000000     0.121200000000     0.121700000000     0          
O        O      0.694900000000     0.488500000000     0.257533333333     0          
O        O      0.700000000000     0.000000000000     0.166666666667     0          
O        O      0.685400000000     0.412100000000     0.201633333333     0          
O        O      0.661750000000     0.426650000000     0.060800000000     0          
O        O      0.625000000000     0.006350000000     0.083333333333     0          
O        O      0.655300000000     0.000000000000     0.000000000000     0          
O        O      0.625000000000     0.405150000000     0.250000000000     0          
T        Si     0.707650000000     0.463200000000     0.209600000000     0          
T        Si     0.659150000000     0.486450000000     0.054000000000     0          
T        Si     0.599800000000     0.378800000000     0.288366666667     0          
O        O      0.555100000000     0.011500000000     0.090866666667     0          
O        O      0.550000000000     0.000000000000     0.000000000000     0          
O        O      0.564600000000     0.087900000000     0.034966666667     0          
O        O      0.588250000000     0.073350000000     0.227466666667     0          
O        O      0.625000000000     0.493650000000     0.250000000000     0          
O        O      0.594700000000     0.000000000000     0.166666666667     0          
O        O      0.625000000000     0.094850000000     0.083333333333     0          
T        Si     0.542350000000     0.036800000000     0.042933333333     0          
T        Si     0.590850000000     0.013550000000     0.220666666667     0          
T        Si     0.650200000000     0.121200000000     0.121700000000     0          
O        O      0.694900000000     0.011500000000     0.075800000000     0          
O        O      0.685400000000     0.087900000000     0.131700000000     0          
O        O      0.661750000000     0.073350000000     0.272533333333     0          
T        Si     0.707650000000     0.036800000000     0.123733333333     0          
T        Si     0.659150000000     0.013550000000     0.279333333333     0          
T        Si     0.599800000000     0.121200000000     0.044966666667     0          
O        O      0.555100000000     0.488500000000     0.242466666667     0          
O        O      0.564600000000     0.412100000000     0.298366666667     0          
O        O      0.588250000000     0.426650000000     0.105866666667     0          
T        Si     0.542350000000     0.463200000000     0.290400000000     0          
T        Si     0.590850000000     0.486450000000     0.112666666667     0          
T        Si     0.650200000000     0.378800000000     0.211633333333     0          
O        O      0.555100000000     0.261500000000     0.409133333333     0          
O        O      0.550000000000     0.250000000000     0.500000000000     0          
O        O      0.500000000000     0.299500000000     0.454333333333     0          
O        O      0.564600000000     0.337900000000     0.465033333333     0          
O        O      0.588250000000     0.323350000000     0.605866666667     0          
O        O      0.625000000000     0.243650000000     0.583333333333     0          
O        O      0.594700000000     0.250000000000     0.333333333333     0          
O        O      0.625000000000     0.375000000000     0.333333333333     0          
O        O      0.625000000000     0.344850000000     0.416666666667     0          
T        Si     0.542350000000     0.286800000000     0.457066666667     0          
T        Si     0.590850000000     0.263550000000     0.612666666667     0          
T        Si     0.650200000000     0.371200000000     0.378300000000     0          
O        O      0.694900000000     0.238500000000     0.575800000000     0          
O        O      0.700000000000     0.250000000000     0.333333333333     0          
O        O      0.750000000000     0.200500000000     0.621000000000     0          
O        O      0.685400000000     0.162100000000     0.631700000000     0          
O        O      0.661750000000     0.176650000000     0.439200000000     0          
O        O      0.625000000000     0.256350000000     0.416666666667     0          
O        O      0.655300000000     0.250000000000     0.500000000000     0          
O        O      0.625000000000     0.125000000000     0.500000000000     0          
O        O      0.625000000000     0.155150000000     0.583333333333     0          
T        Si     0.707650000000     0.213200000000     0.623733333333     0          
T        Si     0.659150000000     0.236450000000     0.446000000000     0          
T        Si     0.599800000000     0.128800000000     0.544966666667     0          
O        O      0.555100000000     0.238500000000     0.590866666667     0          
O        O      0.500000000000     0.200500000000     0.545666666667     0          
O        O      0.564600000000     0.162100000000     0.534966666667     0          
O        O      0.588250000000     0.176650000000     0.394133333333     0          
O        O      0.625000000000     0.125000000000     0.333333333333     0          
T        Si     0.542350000000     0.213200000000     0.542933333333     0          
T        Si     0.590850000000     0.236450000000     0.387333333333     0          
T        Si     0.650200000000     0.128800000000     0.621700000000     0          
O        O      0.694900000000     0.261500000000     0.424200000000     0          
O        O      0.750000000000     0.299500000000     0.379000000000     0          
O        O      0.685400000000     0.337900000000     0.368300000000     0          
O        O      0.661750000000     0.323350000000     0.560800000000     0          
O        O      0.625000000000     0.375000000000     0.500000000000     0          
T        Si     0.707650000000     0.286800000000     0.376266666667     0          
T        Si     0.659150000000     0.263550000000     0.554000000000     0          
T        Si     0.599800000000     0.371200000000     0.455033333333     0          
O        O      0.944900000000     0.238500000000     0.590866666667     0          
O        O      0.950000000000     0.250000000000     0.500000000000     0          
O        O      0.935400000000     0.162100000000     0.534966666667     0          
O        O      0.911750000000     0.176650000000     0.394133333333     0          
O        O      0.875000000000     0.256350000000     0.416666666667     0          
O        O      0.905300000000     0.250000000000     0.333333333333     0          
O        O      0.875000000000     0.125000000000     0.333333333333     0          
O        O      0.875000000000     0.155150000000     0.583333333333     0          
T        Si     0.957650000000     0.213200000000     0.542933333333     0          
T        Si     0.909150000000     0.236450000000     0.387333333333     0          
T        Si     0.849800000000     0.128800000000     0.621700000000     0          
O        O      0.805100000000     0.261500000000     0.424200000000     0          
O        O      0.800000000000     0.250000000000     0.333333333333     0          
O        O      0.814600000000     0.337900000000     0.368300000000     0          
O        O      0.838250000000     0.323350000000     0.560800000000     0          
O        O      0.875000000000     0.243650000000     0.583333333333     0          
O        O      0.844700000000     0.250000000000     0.500000000000     0          
O        O      0.875000000000     0.375000000000     0.500000000000     0          
O        O      0.875000000000     0.344850000000     0.416666666667     0          
T        Si     0.792350000000     0.286800000000     0.376266666667     0          
T        Si     0.840850000000     0.263550000000     0.554000000000     0          
T        Si     0.900200000000     0.371200000000     0.455033333333     0          
O        O      0.944900000000     0.261500000000     0.409133333333     0          
O        O      0.935400000000     0.337900000000     0.465033333333     0          
O        O      0.911750000000     0.323350000000     0.605866666667     0          
O        O      0.875000000000     0.375000000000     0.333333333333     0          
T        Si     0.957650000000     0.286800000000     0.457066666667     0          
T        Si     0.909150000000     0.263550000000     0.612666666667     0          
T        Si     0.849800000000     0.371200000000     0.378300000000     0          
O        O      0.805100000000     0.238500000000     0.575800000000     0          
O        O      0.814600000000     0.162100000000     0.631700000000     0          
O        O      0.838250000000     0.176650000000     0.439200000000     0          
O        O      0.875000000000     0.125000000000     0.500000000000     0          
T        Si     0.792350000000     0.213200000000     0.623733333333     0          
T        Si     0.840850000000     0.236450000000     0.446000000000     0          
T        Si     0.900200000000     0.128800000000     0.544966666667     0          
O        O      0.805100000000     0.011500000000     0.409133333333     0          
O        O      0.800000000000     0.000000000000     0.500000000000     0          
O        O      0.750000000000     0.049500000000     0.454333333333     0          
O        O      0.814600000000     0.087900000000     0.465033333333     0          
O        O      0.838250000000     0.073350000000     0.605866666667     0          
O        O      0.875000000000     0.493650000000     0.583333333333     0          
O        O      0.844700000000     0.000000000000     0.333333333333     0          
O        O      0.875000000000     0.094850000000     0.416666666667     0          
T        Si     0.792350000000     0.036800000000     0.457066666667     0          
T        Si     0.840850000000     0.013550000000     0.612666666667     0          
T        Si     0.900200000000     0.121200000000     0.378300000000     0          
O        O      0.944900000000     0.488500000000     0.575800000000     0          
O        O      0.950000000000     0.000000000000     0.333333333333     0          
O        O      0.500000000000     0.450500000000     0.621000000000     0          
O        O      0.935400000000     0.412100000000     0.631700000000     0          
O        O      0.911750000000     0.426650000000     0.439200000000     0          
O        O      0.875000000000     0.006350000000     0.416666666667     0          
O        O      0.905300000000     0.000000000000     0.500000000000     0          
O        O      0.875000000000     0.405150000000     0.583333333333     0          
T        Si     0.957650000000     0.463200000000     0.623733333333     0          
T        Si     0.909150000000     0.486450000000     0.446000000000     0          
T        Si     0.849800000000     0.378800000000     0.544966666667     0          
O        O      0.805100000000     0.488500000000     0.590866666667     0          
O        O      0.750000000000     0.450500000000     0.545666666667     0          
O        O      0.814600000000     0.412100000000     0.534966666667     0          
O        O      0.838250000000     0.426650000000     0.394133333333     0          
T        Si     0.792350000000     0.463200000000     0.542933333333     0          
T        Si     0.840850000000     0.486450000000     0.387333333333     0          
T        Si     0.900200000000     0.378800000000     0.621700000000     0          
O        O      0.944900000000     0.011500000000     0.424200000000     0          
O        O      0.500000000000     0.049500000000     0.379000000000     0          
O        O      0.935400000000     0.087900000000     0.368300000000     0          
O        O      0.911750000000     0.073350000000     0.560800000000     0          
T        Si     0.957650000000     0.036800000000     0.376266666667     0          
T        Si     0.909150000000     0.013550000000     0.554000000000     0          
T        Si     0.849800000000     0.121200000000     0.455033333333     0          
O        O      0.694900000000     0.488500000000     0.590866666667     0          
O        O      0.700000000000     0.000000000000     0.500000000000     0          
O        O      0.685400000000     0.412100000000     0.534966666667     0          
O        O      0.661750000000     0.426650000000     0.394133333333     0          
O        O      0.625000000000     0.006350000000     0.416666666667     0          
O        O      0.655300000000     0.000000000000     0.333333333333     0          
O        O      0.625000000000     0.405150000000     0.583333333333     0          
T        Si     0.707650000000     0.463200000000     0.542933333333     0          
T        Si     0.659150000000     0.486450000000     0.387333333333     0          
T        Si     0.599800000000     0.378800000000     0.621700000000     0          
O        O      0.555100000000     0.011500000000     0.424200000000     0          
O        O      0.550000000000     0.000000000000     0.333333333333     0          
O        O      0.564600000000     0.087900000000     0.368300000000     0          
O        O      0.588250000000     0.073350000000     0.560800000000     0          
O        O      0.625000000000     0.493650000000     0.583333333333     0          
O        O      0.594700000000     0.000000000000     0.500000000000     0          
O        O      0.625000000000     0.094850000000     0.416666666667     0          
T        Si     0.542350000000     0.036800000000     0.376266666667     0          
T        Si     0.590850000000     0.013550000000     0.554000000000     0          
T        Si     0.650200000000     0.121200000000     0.455033333333     0          
O        O      0.694900000000     0.011500000000     0.409133333333     0          
O        O      0.685400000000     0.087900000000     0.465033333333     0          
O        O      0.661750000000     0.073350000000     0.605866666667     0          
T        Si     0.707650000000     0.036800000000     0.457066666667     0          
T        Si     0.659150000000     0.013550000000     0.612666666667     0          
T        Si     0.599800000000     0.121200000000     0.378300000000     0          
O        O      0.555100000000     0.488500000000     0.575800000000     0          
O        O      0.564600000000     0.412100000000     0.631700000000     0          
O        O      0.588250000000     0.426650000000     0.439200000000     0          
T        Si     0.542350000000     0.463200000000     0.623733333333     0          
T        Si     0.590850000000     0.486450000000     0.446000000000     0          
T        Si     0.650200000000     0.378800000000     0.544966666667     0          
O        O      0.555100000000     0.261500000000     0.742466666667     0          
O        O      0.550000000000     0.250000000000     0.833333333333     0          
O        O      0.500000000000     0.299500000000     0.787666666667     0          
O        O      0.564600000000     0.337900000000     0.798366666667     0          
O        O      0.588250000000     0.323350000000     0.939200000000     0          
O        O      0.625000000000     0.243650000000     0.916666666667     0          
O        O      0.594700000000     0.250000000000     0.666666666667     0          
O        O      0.625000000000     0.375000000000     0.666666666667     0          
O        O      0.625000000000     0.344850000000     0.750000000000     0          
T        Si     0.542350000000     0.286800000000     0.790400000000     0          
T        Si     0.590850000000     0.263550000000     0.946000000000     0          
T        Si     0.650200000000     0.371200000000     0.711633333333     0          
O        O      0.694900000000     0.238500000000     0.909133333333     0          
O        O      0.700000000000     0.250000000000     0.666666666667     0          
O        O      0.750000000000     0.200500000000     0.954333333333     0          
O        O      0.685400000000     0.162100000000     0.965033333333     0          
O        O      0.661750000000     0.176650000000     0.772533333333     0          
O        O      0.625000000000     0.256350000000     0.750000000000     0          
O        O      0.655300000000     0.250000000000     0.833333333333     0          
O        O      0.625000000000     0.125000000000     0.833333333333     0          
O        O      0.625000000000     0.155150000000     0.916666666667     0          
T        Si     0.707650000000     0.213200000000     0.957066666667     0          
T        Si     0.659150000000     0.236450000000     0.779333333333     0          
T        Si     0.599800000000     0.128800000000     0.878300000000     0          
O        O      0.555100000000     0.238500000000     0.924200000000     0          
O        O      0.500000000000     0.200500000000     0.879000000000     0          
O        O      0.564600000000     0.162100000000     0.868300000000     0          
O        O      0.588250000000     0.176650000000     0.727466666667     0          
O        O      0.625000000000     0.125000000000     0.666666666667     0          
T        Si     0.542350000000     0.213200000000     0.876266666667     0          
T        Si     0.590850000000     0.236450000000     0.720666666667     0          
T        Si     0.650200000000     0.128800000000     0.955033333333     0          
O        O      0.694900000000     0.261500000000     0.757533333333     0          
O        O      0.750000000000     0.299500000000     0.712333333333     0          
O        O      0.685400000000     0.337900000000     0.701633333333     0          
O        O      0.661750000000     0.323350000000     0.894133333333     0          
O        O      0.625000000000     0.375000000000     0.833333333333     0          
T        Si     0.707650000000     0.286800000000     0.709600000000     0          
T        Si     0.659150000000     0.263550000000     0.887333333333     0          
T        Si     0.599800000000     0.371200000000     0.788366666667     0          
O        O      0.944900000000     0.238500000000     0.924200000000     0          
O        O      0.950000000000     0.250000000000     0.833333333333     0          
O        O      0.935400000000     0.162100000000     0.868300000000     0          
O        O      0.911750000000     0.176650000000     0.727466666667     0          
O        O      0.875000000000     0.256350000000     0.750000000000     0          
O        O      0.905300000000     0.250000000000     0.666666666667     0          
O        O      0.875000000000     0.125000000000     0.666666666667     0          
O        O      0.875000000000     0.155150000000     0.916666666667     0          
T        Si     0.957650000000     0.213200000000     0.876266666667     0          
T        Si     0.909150000000     0.236450000000     0.720666666667     0          
T        Si     0.849800000000     0.128800000000     0.955033333333     0          
O        O      0.805100000000     0.261500000000     0.757533333333     0          
O        O      0.800000000000     0.250000000000     0.666666666667     0          
O        O      0.814600000000     0.337900000000     0.701633333333     0          
O        O      0.838250000000     0.323350000000     0.894133333333     0          
O        O      0.875000000000     0.243650000000     0.916666666667     0          
O        O      0.844700000000     0.250000000000     0.833333333333     0          
O        O      0.875000000000     0.375000000000     0.833333333333     0          
O        O      0.875000000000     0.344850000000     0.750000000000     0          
T        Si     0.792350000000     0.286800000000     0.709600000000     0          
T        Si     0.840850000000     0.263550000000     0.887333333333     0          
T        Si     0.900200000000     0.371200000000     0.788366666667     0          
O        O      0.944900000000     0.261500000000     0.742466666667     0          
O        O      0.935400000000     0.337900000000     0.798366666667     0          
O        O      0.911750000000     0.323350000000     0.939200000000     0          
O        O      0.875000000000     0.375000000000     0.666666666667     0          
T        Si     0.957650000000     0.286800000000     0.790400000000     0          
T        Si     0.909150000000     0.263550000000     0.946000000000     0          
T        Si     0.849800000000     0.371200000000     0.711633333333     0          
O        O      0.805100000000     0.238500000000     0.909133333333     0          
O        O      0.814600000000     0.162100000000     0.965033333333     0          
O        O      0.838250000000     0.176650000000     0.772533333333     0          
O        O      0.875000000000     0.125000000000     0.833333333333     0          
T        Si     0.792350000000     0.213200000000     0.957066666667     0          
T        Si     0.840850000000     0.236450000000     0.779333333333     0          
T        Si     0.900200000000     0.128800000000     0.878300000000     0          
O        O      0.805100000000     0.011500000000     0.742466666667     0          
O        O      0.800000000000     0.000000000000     0.833333333333     0          
O        O      0.750000000000     0.049500000000     0.787666666667     0          
O        O      0.814600000000     0.087900000000     0.798366666667     0          
O        O      0.838250000000     0.073350000000     0.939200000000     0          
O        O      0.875000000000     0.493650000000     0.916666666667     0          
O        O      0.844700000000     0.000000000000     0.666666666667     0          
O        O      0.875000000000     0.094850000000     0.750000000000     0          
T        Si     0.792350000000     0.036800000000     0.790400000000     0          
T        Si     0.840850000000     0.013550000000     0.946000000000     0          
T        Si     0.900200000000     0.121200000000     0.711633333333     0          
O        O      0.944900000000     0.488500000000     0.909133333333     0          
O        O      0.950000000000     0.000000000000     0.666666666667     0          
O        O      0.500000000000     0.450500000000     0.954333333333     0          
O        O      0.935400000000     0.412100000000     0.965033333333     0          
O        O      0.911750000000     0.426650000000     0.772533333333     0          
O        O      0.875000000000     0.006350000000     0.750000000000     0          
O        O      0.905300000000     0.000000000000     0.833333333333     0          
O        O      0.875000000000     0.405150000000     0.916666666667     0          
T        Si     0.957650000000     0.463200000000     0.957066666667     0          
T        Si     0.909150000000     0.486450000000     0.779333333333     0          
T        Si     0.849800000000     0.378800000000     0.878300000000     0          
O        O      0.805100000000     0.488500000000     0.924200000000     0          
O        O      0.750000000000     0.450500000000     0.879000000000     0          
O        O      0.814600000000     0.412100000000     0.868300000000     0          
O        O      0.838250000000     0.426650000000     0.727466666667     0          
T        Si     0.792350000000     0.463200000000     0.876266666667     0          
T        Si     0.840850000000     0.486450000000     0.720666666667     0          
T        Si     0.900200000000     0.378800000000     0.955033333333     0          
O        O      0.944900000000     0.011500000000     0.757533333333     0          
O        O      0.500000000000     0.049500000000     0.712333333333     0          
O        O      0.935400000000     0.087900000000     0.701633333333     0          
O        O      0.911750000000     0.073350000000     0.894133333333     0          
T        Si     0.957650000000     0.036800000000     0.709600000000     0          
T        Si     0.909150000000     0.013550000000     0.887333333333     0          
T        Si     0.849800000000     0.121200000000     0.788366666667     0          
O        O      0.694900000000     0.488500000000     0.924200000000     0          
O        O      0.700000000000     0.000000000000     0.833333333333     0          
O        O      0.685400000000     0.412100000000     0.868300000000     0          
O        O      0.661750000000     0.426650000000     0.727466666667     0          
O        O      0.625000000000     0.006350000000     0.750000000000     0          
O        O      0.655300000000     0.000000000000     0.666666666667     0          
O        O      0.625000000000     0.405150000000     0.916666666667     0          
T        Si     0.707650000000     0.463200000000     0.876266666667     0          
T        Si     0.659150000000     0.486450000000     0.720666666667     0          
T        Si     0.599800000000     0.378800000000     0.955033333333     0          
O        O      0.555100000000     0.011500000000     0.757533333333     0          
O        O      0.550000000000     0.000000000000     0.666666666667     0          
O        O      0.564600000000     0.087900000000     0.701633333333     0          
O        O      0.588250000000     0.073350000000     0.894133333333     0          
O        O      0.625000000000     0.493650000000     0.916666666667     0          
O        O      0.594700000000     0.000000000000     0.833333333333     0          
O        O      0.625000000000     0.094850000000     0.750000000000     0          
T        Si     0.542350000000     0.036800000000     0.709600000000     0          
T        Si     0.590850000000     0.013550000000     0.887333333333     0          
T        Si     0.650200000000     0.121200000000     0.788366666667     0          
O        O      0.694900000000     0.011500000000     0.742466666667     0          
O        O      0.685400000000     0.087900000000     0.798366666667     0          
O        O      0.661750000000     0.073350000000     0.939200000000     0          
T        Si     0.707650000000     0.036800000000     0.790400000000     0          
T        Si     0.659150000000     0.013550000000     0.946000000000     0          
T        Si     0.599800000000     0.121200000000     0.711633333333     0          
O        O      0.555100000000     0.488500000000     0.909133333333     0          
O        O      0.564600000000     0.412100000000     0.965033333333     0          
O        O      0.588250000000     0.426650000000     0.772533333333     0          
T        Si     0.542350000000     0.463200000000     0.957066666667     0          
T        Si     0.590850000000     0.486450000000     0.779333333333     0          
T        Si     0.650200000000     0.378800000000     0.878300000000     0          
O        O      0.555100000000     0.761500000000     0.075800000000     0          
O        O      0.550000000000     0.750000000000     0.166666666667     0          
O        O      0.500000000000     0.799500000000     0.121000000000     0          
O        O      0.564600000000     0.837900000000     0.131700000000     0          
O        O      0.588250000000     0.823350000000     0.272533333333     0          
O        O      0.625000000000     0.743650000000     0.250000000000     0          
O        O      0.594700000000     0.750000000000     0.000000000000     0          
O        O      0.625000000000     0.875000000000     0.000000000000     0          
O        O      0.625000000000     0.844850000000     0.083333333333     0          
T        Si     0.542350000000     0.786800000000     0.123733333333     0          
T        Si     0.590850000000     0.763550000000     0.279333333333     0          
T        Si     0.650200000000     0.871200000000     0.044966666667     0          
O        O      0.694900000000     0.738500000000     0.242466666667     0          
O        O      0.700000000000     0.750000000000     0.000000000000     0          
O        O      0.750000000000     0.700500000000     0.287666666667     0          
O        O      0.685400000000     0.662100000000     0.298366666667     0          
O        O      0.661750000000     0.676650000000     0.105866666667     0          
O        O      0.625000000000     0.756350000000     0.083333333333     0          
O        O      0.655300000000     0.750000000000     0.166666666667     0          
O        O      0.625000000000     0.625000000000     0.166666666667     0          
O        O      0.625000000000     0.655150000000     0.250000000000     0          
T        Si     0.707650000000     0.713200000000     0.290400000000     0          
T        Si     0.659150000000     0.736450000000     0.112666666667     0          
T        Si     0.599800000000     0.628800000000     0.211633333333     0          
O        O      0.555100000000     0.738500000000     0.257533333333     0          
O        O      0.500000000000     0.700500000000     0.212333333333     0          
O        O      0.564600000000     0.662100000000     0.201633333333     0          
O        O      0.588250000000     0.676650000000     0.060800000000     0          
O        O      0.625000000000     0.625000000000     0.000000000000     0          
T        Si     0.542350000000     0.713200000000     0.209600000000     0          
T        Si     0.590850000000     0.736450000000     0.054000000000     0          
T        Si     0.650200000000     0.628800000000     0.288366666667     0          
O        O      0.694900000000     0.761500000000     0.090866666667     0          
O        O      0.750000000000     0.799500000000     0.045666666667     0          
O        O      0.685400000000     0.837900000000     0.034966666667     0          
O        O      0.661750000000     0.823350000000     0.227466666667     0          
O        O      0.625000000000     0.875000000000     0.166666666667     0          
T        Si     0.707650000000     0.786800000000     0.042933333333     0          
T        Si     0.659150000000     0.763550000000     0.220666666667     0          
T        Si     0.599800000000     0.871200000000     0.121700000000     0          
O        O      0.944900000000     0.738500000000     0.257533333333     0          
O        O      0.950000000000     0.750000000000     0.166666666667     0          
O        O      0.935400000000     0.662100000000     0.201633333333     0          
O        O      0.911750000000     0.676650000000     0.060800000000     0          
O        O      0.875000000000     0.756350000000     0.083333333333     0          
O        O      0.905300000000     0.750000000000     0.000000000000     0          
O        O      0.875000000000     0.625000000000     0.000000000000     0          
O        O      0.875000000000     0.655150000000     0.250000000000     0          
T        Si     0.957650000000     0.713200000000     0.209600000000     0          
T        Si     0.909150000000     0.736450000000     0.054000000000     0          
T        Si     0.849800000000     0.628800000000     0.288366666667     0          
O        O      0.805100000000     0.761500000000     0.090866666667     0          
O        O      0.800000000000     0.750000000000     0.000000000000     0          
O        O      0.814600000000     0.837900000000     0.034966666667     0          
O        O      0.838250000000     0.823350000000     0.227466666667     0          
O        O      0.875000000000     0.743650000000     0.250000000000     0          
O        O      0.844700000000     0.750000000000     0.166666666667     0          
O        O      0.875000000000     0.875000000000     0.166666666667     0          
O        O      0.875000000000     0.844850000000     0.083333333333     0          
T        Si     0.792350000000     0.786800000000     0.042933333333     0          
T        Si     0.840850000000     0.763550000000     0.220666666667     0          
T        Si     0.900200000000     0.871200000000     0.121700000000     0          
O        O      0.944900000000     0.761500000000     0.075800000000     0          
O        O      0.935400000000     0.837900000000     0.131700000000     0          
O        O      0.911750000000     0.823350000000     0.272533333333     0          
O        O      0.875000000000     0.875000000000     0.000000000000     0          
T        Si     0.957650000000     0.786800000000     0.123733333333     0          
T        Si     0.909150000000     0.763550000000     0.279333333333     0          
T        Si     0.849800000000     0.871200000000     0.044966666667     0          
O        O      0.805100000000     0.738500000000     0.242466666667     0          
O        O      0.814600000000     0.662100000000     0.298366666667     0          
O        O      0.838250000000     0.676650000000     0.105866666667     0          
O        O      0.875000000000     0.625000000000     0.166666666667     0          
T        Si     0.792350000000     0.713200000000     0.290400000000     0          
T        Si     0.840850000000     0.736450000000     0.112666666667     0          
T        Si     0.900200000000     0.628800000000     0.211633333333     0          
O        O      0.805100000000     0.511500000000     0.075800000000     0          
O        O      0.800000000000     0.500000000000     0.166666666667     0          
O        O      0.750000000000     0.549500000000     0.121000000000     0          
O        O      0.814600000000     0.587900000000     0.131700000000     0          
O        O      0.838250000000     0.573350000000     0.272533333333     0          
O        O      0.875000000000     0.993650000000     0.250000000000     0          
O        O      0.844700000000     0.500000000000     0.000000000000     0          
O        O      0.875000000000     0.594850000000     0.083333333333     0          
T        Si     0.792350000000     0.536800000000     0.123733333333     0          
T        Si     0.840850000000     0.513550000000     0.279333333333     0          
T        Si     0.900200000000     0.621200000000     0.044966666667     0          
O        O      0.944900000000     0.988500000000     0.242466666667     0          
O        O      0.950000000000     0.500000000000     0.000000000000     0          
O        O      0.500000000000     0.950500000000     0.287666666667     0          
O        O      0.935400000000     0.912100000000     0.298366666667     0          
O        O      0.911750000000     0.926650000000     0.105866666667     0          
O        O      0.875000000000     0.506350000000     0.083333333333     0          
O        O      0.905300000000     0.500000000000     0.166666666667     0          
O        O      0.875000000000     0.905150000000     0.250000000000     0          
T        Si     0.957650000000     0.963200000000     0.290400000000     0          
T        Si     0.909150000000     0.986450000000     0.112666666667     0          
T        Si     0.849800000000     0.878800000000     0.211633333333     0          
O        O      0.805100000000     0.988500000000     0.257533333333     0          
O        O      0.750000000000     0.950500000000     0.212333333333     0          
O        O      0.814600000000     0.912100000000     0.201633333333     0          
O        O      0.838250000000     0.926650000000     0.060800000000     0          
T        Si     0.792350000000     0.963200000000     0.209600000000     0          
T        Si     0.840850000000     0.986450000000     0.054000000000     0          
T        Si     0.900200000000     0.878800000000     0.288366666667     0          
O        O      0.944900000000     0.511500000000     0.090866666667     0          
O        O      0.500000000000     0.549500000000     0.045666666667     0          
O        O      0.935400000000     0.587900000000     0.034966666667     0          
O        O      0.911750000000     0.573350000000     0.227466666667     0          
T        Si     0.957650000000     0.536800000000     0.042933333333     0          
T        Si     0.909150000000     0.513550000000     0.220666666667     0          
T        Si     0.849800000000     0.621200000000     0.121700000000     0          
O        O      0.694900000000     0.988500000000     0.257533333333     0          
O        O      0.700000000000     0.500000000000     0.166666666667     0          
O        O      0.685400000000     0.912100000000     0.201633333333     0          
O        O      0.661750000000     0.926650000000     0.060800000000     0          
O        O      0.625000000000     0.506350000000     0.083333333333     0          
O        O      0.655300000000     0.500000000000     0.000000000000     0          
O        O      0.625000000000     0.905150000000     0.250000000000     0          
T        Si     0.707650000000     0.963200000000     0.209600000000     0          
T        Si     0.659150000000     0.986450000000     0.054000000000     0          
T        Si     0.599800000000     0.878800000000     0.288366666667     0          
O        O      0.555100000000     0.511500000000     0.090866666667     0          
O        O      0.550000000000     0.500000000000     0.000000000000     0          
O        O      0.564600000000     0.587900000000     0.034966666667     0          
O        O      0.588250000000     0.573350000000     0.227466666667     0          
O        O      0.625000000000     0.993650000000     0.250000000000     0          
O        O      0.594700000000     0.500000000000     0.166666666667     0          
O        O      0.625000000000     0.594850000000     0.083333333333     0          
T        Si     0.542350000000     0.536800000000     0.042933333333     0          
T        Si     0.590850000000     0.513550000000     0.220666666667     0          
T        Si     0.650200000000     0.621200000000     0.121700000000     0          
O        O      0.694900000000     0.511500000000     0.075800000000     0          
O        O      0.685400000000     0.587900000000     0.131700000000     0          
O        O      0.661750000000     0.573350000000     0.272533333333     0          
T        Si     0.707650000000     0.536800000000     0.123733333333     0          
T        Si     0.659150000000     0.513550000000     0.279333333333     0          
T        Si     0.599800000000     0.621200000000     0.044966666667     0          
O        O      0.555100000000     0.988500000000     0.242466666667     0          
O        O      0.564600000000     0.912100000000     0.298366666667     0          
O        O      0.588250000000     0.926650000000     0.105866666667     0          
T        Si     0.542350000000     0.963200000000     0.290400000000     0          
T        Si     0.590850000000     0.986450000000     0.112666666667     0          
T        Si     0.650200000000     0.878800000000     0.211633333333     0          
O        O      0.555100000000     0.761500000000     0.409133333333     0          
O        O      0.550000000000     0.750000000000     0.500000000000     0          
O        O      0.500000000000     0.799500000000     0.454333333333     0          
O        O      0.564600000000     0.837900000000     0.465033333333     0          
O        O      0.588250000000     0.823350000000     0.605866666667     0          
O        O      0.625000000000     0.743650000000     0.583333333333     0          
O        O      0.594700000000     0.750000000000     0.333333333333     0          
O        O      0.625000000000     0.875000000000     0.333333333333     0          
O        O      0.625000000000     0.844850000000     0.416666666667     0          
T        Si     0.542350000000     0.786800000000     0.457066666667     0          
T        Si     0.590850000000     0.763550000000     0.612666666667     0          
T        Si     0.650200000000     0.871200000000     0.378300000000     0          
O        O      0.694900000000     0.738500000000     0.575800000000     0          
O        O      0.700000000000     0.750000000000     0.333333333333     0          
O        O      0.750000000000     0.700500000000     0.621000000000     0          
O        O      0.685400000000     0.662100000000     0.631700000000     0          
O        O      0.661750000000     0.676650000000     0.439200000000     0          
O        O      0.625000000000     0.756350000000     0.416666666667     0          
O        O      0.655300000000     0.750000000000     0.500000000000     0          
O        O      0.625000000000     0.625000000000     0.500000000000     0          
O        O      0.625000000000     0.655150000000     0.583333333333     0          
T        Si     0.707650000000     0.713200000000     0.623733333333     0          
T        Si     0.659150000000     0.736450000000     0.446000000000     0          
T        Si     0.599800000000     0.628800000000     0.544966666667     0          
O        O      0.555100000000     0.738500000000     0.590866666667     0          
O        O      0.500000000000     0.700500000000     0.545666666667     0          
O        O      0.564600000000     0.662100000000     0.534966666667     0          
O        O      0.588250000000     0.676650000000     0.394133333333     0          
O        O      0.625000000000     0.625000000000     0.333333333333     0          
T        Si     0.542350000000     0.713200000000     0.542933333333     0          
T        Si     0.590850000000     0.736450000000     0.387333333333     0          
T        Si     0.650200000000     0.628800000000     0.621700000000     0          
O        O      0.694900000000     0.761500000000     0.424200000000     0          
O        O      0.750000000000     0.799500000000     0.379000000000     0          
O        O      0.685400000000     0.837900000000     0.368300000000     0          
O        O      0.661750000000     0.823350000000     0.560800000000     0          
O        O      0.625000000000     0.875000000000     0.500000000000     0          
T        Si     0.707650000000     0.786800000000     0.376266666667     0          
T        Si     0.659150000000     0.763550000000     0.554000000000     0          
T        Si     0.599800000000     0.871200000000     0.455033333333     0          
O        O      0.944900000000     0.738500000000     0.590866666667     0          
O        O      0.950000000000     0.750000000000     0.500000000000     0          
O        O      0.935400000000     0.662100000000     0.534966666667     0          
O        O      0.911750000000     0.676650000000     0.394133333333     0          
O        O      0.875000000000     0.756350000000     0.416666666667     0          
O        O      0.905300000000     0.750000000000     0.333333333333     0          
O        O      0.875000000000     0.625000000000     0.333333333333     0          
O        O      0.875000000000     0.655150000000     0.583333333333     0          
T        Si     0.957650000000     0.713200000000     0.542933333333     0          
T        Si     0.909150000000     0.736450000000     0.387333333333     0          
T        Si     0.849800000000     0.628800000000     0.621700000000     0          
O        O      0.805100000000     0.761500000000     0.424200000000     0          
O        O      0.800000000000     0.750000000000     0.333333333333     0          
O        O      0.814600000000     0.837900000000     0.368300000000     0          
O        O      0.838250000000     0.823350000000     0.560800000000     0          
O        O      0.875000000000     0.743650000000     0.583333333333     0          
O        O      0.844700000000     0.750000000000     0.500000000000     0          
O        O      0.875000000000     0.875000000000     0.500000000000     0          
O        O      0.875000000000     0.844850000000     0.416666666667     0          
T        Si     0.792350000000     0.786800000000     0.376266666667     0          
T        Si     0.840850000000     0.763550000000     0.554000000000     0          
T        Si     0.900200000000     0.871200000000     0.455033333333     0          
O        O      0.944900000000     0.761500000000     0.409133333333     0          
O        O      0.935400000000     0.837900000000     0.465033333333     0          
O        O      0.911750000000     0.823350000000     0.605866666667     0          
O        O      0.875000000000     0.875000000000     0.333333333333     0          
T        Si     0.957650000000     0.786800000000     0.457066666667     0          
T        Si     0.909150000000     0.763550000000     0.612666666667     0          
T        Si     0.849800000000     0.871200000000     0.378300000000     0          
O        O      0.805100000000     0.738500000000     0.575800000000     0          
O        O      0.814600000000     0.662100000000     0.631700000000     0          
O        O      0.838250000000     0.676650000000     0.439200000000     0          
O        O      0.875000000000     0.625000000000     0.500000000000     0          
T        Si     0.792350000000     0.713200000000     0.623733333333     0          
T        Si     0.840850000000     0.736450000000     0.446000000000     0          
T        Si     0.900200000000     0.628800000000     0.544966666667     0          
O        O      0.805100000000     0.511500000000     0.409133333333     0          
O        O      0.800000000000     0.500000000000     0.500000000000     0          
O        O      0.750000000000     0.549500000000     0.454333333333     0          
O        O      0.814600000000     0.587900000000     0.465033333333     0          
O        O      0.838250000000     0.573350000000     0.605866666667     0          
O        O      0.875000000000     0.993650000000     0.583333333333     0          
O        O      0.844700000000     0.500000000000     0.333333333333     0          
O        O      0.875000000000     0.594850000000     0.416666666667     0          
T        Si     0.792350000000     0.536800000000     0.457066666667     0          
T        Si     0.840850000000     0.513550000000     0.612666666667     0          
T        Si     0.900200000000     0.621200000000     0.378300000000     0          
O        O      0.944900000000     0.988500000000     0.575800000000     0          
O        O      0.950000000000     0.500000000000     0.333333333333     0          
O        O      0.500000000000     0.950500000000     0.621000000000     0          
O        O      0.935400000000     0.912100000000     0.631700000000     0          
O        O      0.911750000000     0.926650000000     0.439200000000     0          
O        O      0.875000000000     0.506350000000     0.416666666667     0          
O        O      0.905300000000     0.500000000000     0.500000000000     0          
O        O      0.875000000000     0.905150000000     0.583333333333     0          
T        Si     0.957650000000     0.963200000000     0.623733333333     0          
T        Si     0.909150000000     0.986450000000     0.446000000000     0          
T        Si     0.849800000000     0.878800000000     0.544966666667     0          
O        O      0.805100000000     0.988500000000     0.590866666667     0          
O        O      0.750000000000     0.950500000000     0.545666666667     0          
O        O      0.814600000000     0.912100000000     0.534966666667     0          
O        O      0.838250000000     0.926650000000     0.394133333333     0          
T        Si     0.792350000000     0.963200000000     0.542933333333     0          
T        Si     0.840850000000     0.986450000000     0.387333333333     0          
T        Si     0.900200000000     0.878800000000     0.621700000000     0          
O        O      0.944900000000     0.511500000000     0.424200000000     0          
O        O      0.500000000000     0.549500000000     0.379000000000     0          
O        O      0.935400000000     0.587900000000     0.368300000000     0          
O        O      0.911750000000     0.573350000000     0.560800000000     0          
T        Si     0.957650000000     0.536800000000     0.376266666667     0          
T        Si     0.909150000000     0.513550000000     0.554000000000     0          
T        Si     0.849800000000     0.621200000000     0.455033333333     0          
O        O      0.694900000000     0.988500000000     0.590866666667     0          
O        O      0.700000000000     0.500000000000     0.500000000000     0          
O        O      0.685400000000     0.912100000000     0.534966666667     0          
O        O      0.661750000000     0.926650000000     0.394133333333     0          
O        O      0.625000000000     0.506350000000     0.416666666667     0          
O        O      0.655300000000     0.500000000000     0.333333333333     0          
O        O      0.625000000000     0.905150000000     0.583333333333     0          
T        Si     0.707650000000     0.963200000000     0.542933333333     0          
T        Si     0.659150000000     0.986450000000     0.387333333333     0          
T        Si     0.599800000000     0.878800000000     0.621700000000     0          
O        O      0.555100000000     0.511500000000     0.424200000000     0          
O        O      0.550000000000     0.500000000000     0.333333333333     0          
O        O      0.564600000000     0.587900000000     0.368300000000     0          
O        O      0.588250000000     0.573350000000     0.560800000000     0          
O        O      0.625000000000     0.993650000000     0.583333333333     0          
O        O      0.594700000000     0.500000000000     0.500000000000     0          
O        O      0.625000000000     0.594850000000     0.416666666667     0          
T        Si     0.542350000000     0.536800000000     0.376266666667     0          
T        Si     0.590850000000     0.513550000000     0.554000000000     0          
T        Si     0.650200000000     0.621200000000     0.455033333333     0          
O        O      0.694900000000     0.511500000000     0.409133333333     0          
O        O      0.685400000000     0.587900000000     0.465033333333     0          
O        O      0.661750000000     0.573350000000     0.605866666667     0          
T        Si     0.707650000000     0.536800000000     0.457066666667     0          
T        Si     0.659150000000     0.513550000000     0.612666666667     0          
T        Si     0.599800000000     0.621200000000     0.378300000000     0          
O        O      0.555100000000     0.988500000000     0.575800000000     0          
O        O      0.564600000000     0.912100000000     0.631700000000     0          
O        O      0.588250000000     0.926650000000     0.439200000000     0          
T        Si     0.542350000000     0.963200000000     0.623733333333     0          
T        Si     0.590850000000     0.986450000000     0.446000000000     0          
T        Si     0.650200000000     0.878800000000     0.544966666667     0          
O        O      0.555100000000     0.761500000000     0.742466666667     0          
O        O      0.550000000000     0.750000000000     0.833333333333     0          
O        O      0.500000000000     0.799500000000     0.787666666667     0          
O        O      0.564600000000     0.837900000000     0.798366666667     0          
O        O      0.588250000000     0.823350000000     0.939200000000     0          
O        O      0.625000000000     0.743650000000     0.916666666667     0          
O        O      0.594700000000     0.750000000000     0.666666666667     0          
O        O      0.625000000000     0.875000000000     0.666666666667     0          
O        O      0.625000000000     0.844850000000     0.750000000000     0          
T        Si     0.542350000000     0.786800000000     0.790400000000     0          
T        Si     0.590850000000     0.763550000000     0.946000000000     0          
T        Si     0.650200000000     0.871200000000     0.711633333333     0          
O        O      0.694900000000     0.738500000000     0.909133333333     0          
O        O      0.700000000000     0.750000000000     0.666666666667     0          
O        O      0.750000000000     0.700500000000     0.954333333333     0          
O        O      0.685400000000     0.662100000000     0.965033333333     0          
O        O      0.661750000000     0.676650000000     0.772533333333     0          
O        O      0.625000000000     0.756350000000     0.750000000000     0          
O        O      0.655300000000     0.750000000000     0.833333333333     0          
O        O      0.625000000000     0.625000000000     0.833333333333     0          
O        O      0.625000000000     0.655150000000     0.916666666667     0          
T        Si     0.707650000000     0.713200000000     0.957066666667     0          
T        Si     0.659150000000     0.736450000000     0.779333333333     0          
T        Si     0.599800000000     0.628800000000     0.878300000000     0          
O        O      0.555100000000     0.738500000000     0.924200000000     0          
O        O      0.500000000000     0.700500000000     0.879000000000     0          
O        O      0.564600000000     0.662100000000     0.868300000000     0          
O        O      0.588250000000     0.676650000000     0.727466666667     0          
O        O      0.625000000000     0.625000000000     0.666666666667     0          
T        Si     0.542350000000     0.713200000000     0.876266666667     0          
T        Si     0.590850000000     0.736450000000     0.720666666667     0          
T        Si     0.650200000000     0.628800000000     0.955033333333     0          
O        O      0.694900000000     0.761500000000     0.757533333333     0          
O        O      0.750000000000     0.799500000000     0.712333333333     0          
O        O      0.685400000000     0.837900000000     0.701633333333     0          
O        O      0.661750000000     0.823350000000     0.894133333333     0          
O        O      0.625000000000     0.875000000000     0.833333333333     0          
T        Si     0.707650000000     0.786800000000     0.709600000000     0          
T        Si     0.659150000000     0.763550000000     0.887333333333     0          
T        Si     0.599800000000     0.871200000000     0.788366666667     0          
O        O      0.944900000000     0.738500000000     0.924200000000     0          
O        O      0.950000000000     0.750000000000     0.833333333333     0          
O        O      0.935400000000     0.662100000000     0.868300000000     0          
O        O      0.911750000000     0.676650000000     0.727466666667     0          
O        O      0.875000000000     0.756350000000     0.750000000000     0          
O        O      0.905300000000     0.750000000000     0.666666666667     0          
O        O      0.875000000000     0.625000000000     0.666666666667     0          
O        O      0.875000000000     0.655150000000     0.916666666667     0          
T        Si     0.957650000000     0.713200000000     0.876266666667     0          
T        Si     0.909150000000     0.736450000000     0.720666666667     0          
T        Si     0.849800000000     0.628800000000     0.955033333333     0          
O        O      0.805100000000     0.761500000000     0.757533333333     0          
O        O      0.800000000000     0.750000000000     0.666666666667     0          
O        O      0.814600000000     0.837900000000     0.701633333333     0          
O        O      0.838250000000     0.823350000000     0.894133333333     0          
O        O      0.875000000000     0.743650000000     0.916666666667     0          
O        O      0.844700000000     0.750000000000     0.833333333333     0          
O        O      0.875000000000     0.875000000000     0.833333333333     0          
O        O      0.875000000000     0.844850000000     0.750000000000     0          
T        Si     0.792350000000     0.786800000000     0.709600000000     0          
T        Si     0.840850000000     0.763550000000     0.887333333333     0          
T        Si     0.900200000000     0.871200000000     0.788366666667     0          
O        O      0.944900000000     0.761500000000     0.742466666667     0          
O        O      0.935400000000     0.837900000000     0.798366666667     0          
O        O      0.911750000000     0.823350000000     0.939200000000     0          
O        O      0.875000000000     0.875000000000     0.666666666667     0          
T        Si     0.957650000000     0.786800000000     0.790400000000     0          
T        Si     0.909150000000     0.763550000000     0.946000000000     0          
T        Si     0.849800000000     0.871200000000     0.711633333333     0          
O        O      0.805100000000     0.738500000000     0.909133333333     0          
O        O      0.814600000000     0.662100000000     0.965033333333     0          
O        O      0.838250000000     0.676650000000     0.772533333333     0          
O        O      0.875000000000     0.625000000000     0.833333333333     0          
T        Si     0.792350000000     0.713200000000     0.957066666667     0          
T        Si     0.840850000000     0.736450000000     0.779333333333     0          
T        Si     0.900200000000     0.628800000000     0.878300000000     0          
O        O      0.805100000000     0.511500000000     0.742466666667     0          
O        O      0.800000000000     0.500000000000     0.833333333333     0          
O        O      0.750000000000     0.549500000000     0.787666666667     0          
O        O      0.814600000000     0.587900000000     0.798366666667     0          
O        O      0.838250000000     0.573350000000     0.939200000000     0          
O        O      0.875000000000     0.993650000000     0.916666666667     0          
O        O      0.844700000000     0.500000000000     0.666666666667     0          
O        O      0.875000000000     0.594850000000     0.750000000000     0          
T        Si     0.792350000000     0.536800000000     0.790400000000     0          
T        Si     0.840850000000     0.513550000000     0.946000000000     0          
T        Si     0.900200000000     0.621200000000     0.711633333333     0          
O        O      0.944900000000     0.988500000000     0.909133333333     0          
O        O      0.950000000000     0.500000000000     0.666666666667     0          
O        O      0.500000000000     0.950500000000     0.954333333333     0          
O        O      0.935400000000     0.912100000000     0.965033333333     0          
O        O      0.911750000000     0.926650000000     0.772533333333     0          
O        O      0.875000000000     0.506350000000     0.750000000000     0          
O        O      0.905300000000     0.500000000000     0.833333333333     0          
O        O      0.875000000000     0.905150000000     0.916666666667     0          
T        Si     0.957650000000     0.963200000000     0.957066666667     0          
T        Si     0.909150000000     0.986450000000     0.779333333333     0          
T        Si     0.849800000000     0.878800000000     0.878300000000     0          
O        O      0.805100000000     0.988500000000     0.924200000000     0          
O        O      0.750000000000     0.950500000000     0.879000000000     0          
O        O      0.814600000000     0.912100000000     0.868300000000     0          
O        O      0.838250000000     0.926650000000     0.727466666667     0          
T        Si     0.792350000000     0.963200000000     0.876266666667     0          
T        Si     0.840850000000     0.986450000000     0.720666666667     0          
T        Si     0.900200000000     0.878800000000     0.955033333333     0          
O        O      0.944900000000     0.511500000000     0.757533333333     0          
O        O      0.500000000000     0.549500000000     0.712333333333     0          
O        O      0.935400000000     0.587900000000     0.701633333333     0          
O        O      0.911750000000     0.573350000000     0.894133333333     0          
T        Si     0.957650000000     0.536800000000     0.709600000000     0          
T        Si     0.909150000000     0.513550000000     0.887333333333     0          
T        Si     0.849800000000     0.621200000000     0.788366666667     0          
O        O      0.694900000000     0.988500000000     0.924200000000     0          
O        O      0.700000000000     0.500000000000     0.833333333333     0          
O        O      0.685400000000     0.912100000000     0.868300000000     0          
O        O      0.661750000000     0.926650000000     0.727466666667     0          
O        O      0.625000000000     0.506350000000     0.750000000000     0          
O        O      0.655300000000     0.500000000000     0.666666666667     0          
O        O      0.625000000000     0.905150000000     0.916666666667     0          
T        Si     0.707650000000     0.963200000000     0.876266666667     0          
T        Si     0.659150000000     0.986450000000     0.720666666667     0          
T        Si     0.599800000000     0.878800000000     0.955033333333     0          
O        O      0.555100000000     0.511500000000     0.757533333333     0          
O        O      0.550000000000     0.500000000000     0.666666666667     0          
O        O      0.564600000000     0.587900000000     0.701633333333     0          
O        O      0.588250000000     0.573350000000     0.894133333333     0          
O        O      0.625000000000     0.993650000000     0.916666666667     0          
O        O      0.594700000000     0.500000000000     0.833333333333     0          
O        O      0.625000000000     0.594850000000     0.750000000000     0          
T        Si     0.542350000000     0.536800000000     0.709600000000     0          
T        Si     0.590850000000     0.513550000000     0.887333333333     0          
T        Si     0.650200000000     0.621200000000     0.788366666667     0          
O        O      0.694900000000     0.511500000000     0.742466666667     0          
O        O      0.685400000000     0.587900000000     0.798366666667     0          
O        O      0.661750000000     0.573350000000     0.939200000000     0          
T        Si     0.707650000000     0.536800000000     0.790400000000     0          
T        Si     0.659150000000     0.513550000000     0.946000000000     0          
T        Si     0.599800000000     0.621200000000     0.711633333333     0          
O        O      0.555100000000     0.988500000000     0.909133333333     0          
O        O      0.564600000000     0.912100000000     0.965033333333     0          
O        O      0.588250000000     0.926650000000     0.772533333333     0          
T        Si     0.542350000000     0.963200000000     0.957066666667     0          
T        Si     0.590850000000     0.986450000000     0.779333333333     0          
T        Si     0.650200000000     0.878800000000     0.878300000000     0          


