data_zeolite

_audit_creation_method RASPA-1.0
_audit_creation_date 2021-6-6
_audit_author_name ''

_cell_length_a    37.156
_cell_length_b    37.156
_cell_length_c    37.156
_cell_angle_alpha 90
_cell_angle_beta  90
_cell_angle_gamma 90
_cell_volume      51296.4

_symmetry_cell_setting          cubic
_symmetry_space_group_name_Hall 'P 1'
_symmetry_space_group_name_H-M  'P 1'
_symmetry_Int_Tables_number     1

_symmetry_equiv_pos_as_xyz 'x,y,z'

loop_
_atom_site_label
_atom_site_type_symbol
_atom_site_fract_x
_atom_site_fract_y
_atom_site_fract_z
_atom_site_charge
O        O      0.000000000000     0.092800000000     0.167400000000     0          
O        O      0.045900000000     0.122400000000     0.122400000000     0          
O        O      0.057900000000     0.125000000000     0.192100000000     0          
O        O      0.063550000000     0.063550000000     0.157450000000     0          
T        Si     0.041850000000     0.101000000000     0.159850000000     0          
O        O      0.407200000000     0.000000000000     0.167400000000     0          
O        O      0.377600000000     0.045900000000     0.122400000000     0          
O        O      0.375000000000     0.057900000000     0.192100000000     0          
O        O      0.436450000000     0.063550000000     0.157450000000     0          
T        Si     0.399000000000     0.041850000000     0.159850000000     0          
O        O      0.000000000000     0.407200000000     0.167400000000     0          
O        O      0.454100000000     0.377600000000     0.122400000000     0          
O        O      0.442100000000     0.375000000000     0.192100000000     0          
O        O      0.436450000000     0.436450000000     0.157450000000     0          
T        Si     0.458150000000     0.399000000000     0.159850000000     0          
O        O      0.092800000000     0.000000000000     0.167400000000     0          
O        O      0.122400000000     0.454100000000     0.122400000000     0          
O        O      0.125000000000     0.442100000000     0.192100000000     0          
O        O      0.063550000000     0.436450000000     0.157450000000     0          
T        Si     0.101000000000     0.458150000000     0.159850000000     0          
O        O      0.000000000000     0.407200000000     0.332600000000     0          
O        O      0.045900000000     0.377600000000     0.377600000000     0          
O        O      0.057900000000     0.375000000000     0.307900000000     0          
O        O      0.063550000000     0.436450000000     0.342550000000     0          
T        Si     0.041850000000     0.399000000000     0.340150000000     0          
O        O      0.092800000000     0.000000000000     0.332600000000     0          
O        O      0.122400000000     0.045900000000     0.377600000000     0          
O        O      0.125000000000     0.057900000000     0.307900000000     0          
O        O      0.063550000000     0.063550000000     0.342550000000     0          
T        Si     0.101000000000     0.041850000000     0.340150000000     0          
O        O      0.000000000000     0.092800000000     0.332600000000     0          
O        O      0.454100000000     0.122400000000     0.377600000000     0          
O        O      0.442100000000     0.125000000000     0.307900000000     0          
O        O      0.436450000000     0.063550000000     0.342550000000     0          
T        Si     0.458150000000     0.101000000000     0.340150000000     0          
O        O      0.407200000000     0.000000000000     0.332600000000     0          
O        O      0.377600000000     0.454100000000     0.377600000000     0          
O        O      0.375000000000     0.442100000000     0.307900000000     0          
O        O      0.436450000000     0.436450000000     0.342550000000     0          
T        Si     0.399000000000     0.458150000000     0.340150000000     0          
O        O      0.167400000000     0.000000000000     0.092800000000     0          
O        O      0.122400000000     0.045900000000     0.122400000000     0          
O        O      0.192100000000     0.057900000000     0.125000000000     0          
O        O      0.157450000000     0.063550000000     0.063550000000     0          
T        Si     0.159850000000     0.041850000000     0.101000000000     0          
O        O      0.000000000000     0.167400000000     0.092800000000     0          
O        O      0.454100000000     0.122400000000     0.122400000000     0          
O        O      0.442100000000     0.192100000000     0.125000000000     0          
O        O      0.436450000000     0.157450000000     0.063550000000     0          
T        Si     0.458150000000     0.159850000000     0.101000000000     0          
O        O      0.332600000000     0.000000000000     0.092800000000     0          
O        O      0.377600000000     0.454100000000     0.122400000000     0          
O        O      0.307900000000     0.442100000000     0.125000000000     0          
O        O      0.342550000000     0.436450000000     0.063550000000     0          
T        Si     0.340150000000     0.458150000000     0.101000000000     0          
O        O      0.000000000000     0.332600000000     0.092800000000     0          
O        O      0.045900000000     0.377600000000     0.122400000000     0          
O        O      0.057900000000     0.307900000000     0.125000000000     0          
O        O      0.063550000000     0.342550000000     0.063550000000     0          
T        Si     0.041850000000     0.340150000000     0.101000000000     0          
O        O      0.167400000000     0.000000000000     0.407200000000     0          
O        O      0.122400000000     0.454100000000     0.377600000000     0          
O        O      0.192100000000     0.442100000000     0.375000000000     0          
O        O      0.157450000000     0.436450000000     0.436450000000     0          
T        Si     0.159850000000     0.458150000000     0.399000000000     0          
O        O      0.000000000000     0.167400000000     0.407200000000     0          
O        O      0.045900000000     0.122400000000     0.377600000000     0          
O        O      0.057900000000     0.192100000000     0.375000000000     0          
O        O      0.063550000000     0.157450000000     0.436450000000     0          
T        Si     0.041850000000     0.159850000000     0.399000000000     0          
O        O      0.332600000000     0.000000000000     0.407200000000     0          
O        O      0.377600000000     0.045900000000     0.377600000000     0          
O        O      0.307900000000     0.057900000000     0.375000000000     0          
O        O      0.342550000000     0.063550000000     0.436450000000     0          
T        Si     0.340150000000     0.041850000000     0.399000000000     0          
O        O      0.000000000000     0.332600000000     0.407200000000     0          
O        O      0.454100000000     0.377600000000     0.377600000000     0          
O        O      0.442100000000     0.307900000000     0.375000000000     0          
O        O      0.436450000000     0.342550000000     0.436450000000     0          
T        Si     0.458150000000     0.340150000000     0.399000000000     0          
O        O      0.092800000000     0.167400000000     0.000000000000     0          
O        O      0.122400000000     0.122400000000     0.045900000000     0          
O        O      0.125000000000     0.192100000000     0.057900000000     0          
O        O      0.063550000000     0.157450000000     0.063550000000     0          
T        Si     0.101000000000     0.159850000000     0.041850000000     0          
O        O      0.092800000000     0.332600000000     0.000000000000     0          
O        O      0.122400000000     0.377600000000     0.454100000000     0          
O        O      0.125000000000     0.307900000000     0.442100000000     0          
O        O      0.063550000000     0.342550000000     0.436450000000     0          
T        Si     0.101000000000     0.340150000000     0.458150000000     0          
O        O      0.167400000000     0.092800000000     0.000000000000     0          
O        O      0.122400000000     0.122400000000     0.454100000000     0          
O        O      0.192100000000     0.125000000000     0.442100000000     0          
O        O      0.157450000000     0.063550000000     0.436450000000     0          
T        Si     0.159850000000     0.101000000000     0.458150000000     0          
O        O      0.407200000000     0.167400000000     0.000000000000     0          
O        O      0.377600000000     0.122400000000     0.454100000000     0          
O        O      0.375000000000     0.192100000000     0.442100000000     0          
O        O      0.436450000000     0.157450000000     0.436450000000     0          
T        Si     0.399000000000     0.159850000000     0.458150000000     0          
O        O      0.332600000000     0.407200000000     0.000000000000     0          
O        O      0.377600000000     0.377600000000     0.454100000000     0          
O        O      0.307900000000     0.375000000000     0.442100000000     0          
O        O      0.342550000000     0.436450000000     0.436450000000     0          
T        Si     0.340150000000     0.399000000000     0.458150000000     0          
O        O      0.407200000000     0.332600000000     0.000000000000     0          
O        O      0.377600000000     0.377600000000     0.045900000000     0          
O        O      0.375000000000     0.307900000000     0.057900000000     0          
O        O      0.436450000000     0.342550000000     0.063550000000     0          
T        Si     0.399000000000     0.340150000000     0.041850000000     0          
O        O      0.167400000000     0.407200000000     0.000000000000     0          
O        O      0.122400000000     0.377600000000     0.045900000000     0          
O        O      0.192100000000     0.375000000000     0.057900000000     0          
O        O      0.157450000000     0.436450000000     0.063550000000     0          
T        Si     0.159850000000     0.399000000000     0.041850000000     0          
O        O      0.332600000000     0.092800000000     0.000000000000     0          
O        O      0.377600000000     0.122400000000     0.045900000000     0          
O        O      0.307900000000     0.125000000000     0.057900000000     0          
O        O      0.342550000000     0.063550000000     0.063550000000     0          
T        Si     0.340150000000     0.101000000000     0.041850000000     0          
O        O      0.442100000000     0.375000000000     0.307900000000     0          
T        Si     0.458150000000     0.399000000000     0.340150000000     0          
O        O      0.125000000000     0.442100000000     0.307900000000     0          
T        Si     0.101000000000     0.458150000000     0.340150000000     0          
O        O      0.057900000000     0.125000000000     0.307900000000     0          
T        Si     0.041850000000     0.101000000000     0.340150000000     0          
O        O      0.375000000000     0.057900000000     0.307900000000     0          
T        Si     0.399000000000     0.041850000000     0.340150000000     0          
O        O      0.442100000000     0.125000000000     0.192100000000     0          
T        Si     0.458150000000     0.101000000000     0.159850000000     0          
O        O      0.375000000000     0.442100000000     0.192100000000     0          
T        Si     0.399000000000     0.458150000000     0.159850000000     0          
O        O      0.057900000000     0.375000000000     0.192100000000     0          
T        Si     0.041850000000     0.399000000000     0.159850000000     0          
O        O      0.125000000000     0.057900000000     0.192100000000     0          
T        Si     0.101000000000     0.041850000000     0.159850000000     0          
O        O      0.307900000000     0.442100000000     0.375000000000     0          
T        Si     0.340150000000     0.458150000000     0.399000000000     0          
O        O      0.057900000000     0.307900000000     0.375000000000     0          
T        Si     0.041850000000     0.340150000000     0.399000000000     0          
O        O      0.192100000000     0.057900000000     0.375000000000     0          
T        Si     0.159850000000     0.041850000000     0.399000000000     0          
O        O      0.442100000000     0.192100000000     0.375000000000     0          
T        Si     0.458150000000     0.159850000000     0.399000000000     0          
O        O      0.307900000000     0.057900000000     0.125000000000     0          
T        Si     0.340150000000     0.041850000000     0.101000000000     0          
O        O      0.442100000000     0.307900000000     0.125000000000     0          
T        Si     0.458150000000     0.340150000000     0.101000000000     0          
O        O      0.192100000000     0.442100000000     0.125000000000     0          
T        Si     0.159850000000     0.458150000000     0.101000000000     0          
O        O      0.057900000000     0.192100000000     0.125000000000     0          
T        Si     0.041850000000     0.159850000000     0.101000000000     0          
O        O      0.375000000000     0.307900000000     0.442100000000     0          
T        Si     0.399000000000     0.340150000000     0.458150000000     0          
O        O      0.375000000000     0.192100000000     0.057900000000     0          
T        Si     0.399000000000     0.159850000000     0.041850000000     0          
O        O      0.307900000000     0.375000000000     0.057900000000     0          
T        Si     0.340150000000     0.399000000000     0.041850000000     0          
O        O      0.125000000000     0.307900000000     0.057900000000     0          
T        Si     0.101000000000     0.340150000000     0.041850000000     0          
O        O      0.192100000000     0.125000000000     0.057900000000     0          
T        Si     0.159850000000     0.101000000000     0.041850000000     0          
O        O      0.125000000000     0.192100000000     0.442100000000     0          
T        Si     0.101000000000     0.159850000000     0.458150000000     0          
O        O      0.307900000000     0.125000000000     0.442100000000     0          
T        Si     0.340150000000     0.101000000000     0.458150000000     0          
O        O      0.192100000000     0.375000000000     0.442100000000     0          
T        Si     0.159850000000     0.399000000000     0.458150000000     0          
O        O      0.250000000000     0.342800000000     0.417400000000     0          
O        O      0.295900000000     0.372400000000     0.372400000000     0          
O        O      0.313550000000     0.313550000000     0.407450000000     0          
T        Si     0.291850000000     0.351000000000     0.409850000000     0          
O        O      0.157200000000     0.250000000000     0.417400000000     0          
O        O      0.127600000000     0.295900000000     0.372400000000     0          
O        O      0.186450000000     0.313550000000     0.407450000000     0          
T        Si     0.149000000000     0.291850000000     0.409850000000     0          
O        O      0.250000000000     0.157200000000     0.417400000000     0          
O        O      0.204100000000     0.127600000000     0.372400000000     0          
O        O      0.186450000000     0.186450000000     0.407450000000     0          
T        Si     0.208150000000     0.149000000000     0.409850000000     0          
O        O      0.342800000000     0.250000000000     0.417400000000     0          
O        O      0.372400000000     0.204100000000     0.372400000000     0          
O        O      0.313550000000     0.186450000000     0.407450000000     0          
T        Si     0.351000000000     0.208150000000     0.409850000000     0          
O        O      0.250000000000     0.157200000000     0.082600000000     0          
O        O      0.295900000000     0.127600000000     0.127600000000     0          
O        O      0.313550000000     0.186450000000     0.092550000000     0          
T        Si     0.291850000000     0.149000000000     0.090150000000     0          
O        O      0.342800000000     0.250000000000     0.082600000000     0          
O        O      0.372400000000     0.295900000000     0.127600000000     0          
O        O      0.313550000000     0.313550000000     0.092550000000     0          
T        Si     0.351000000000     0.291850000000     0.090150000000     0          
O        O      0.250000000000     0.342800000000     0.082600000000     0          
O        O      0.204100000000     0.372400000000     0.127600000000     0          
O        O      0.186450000000     0.313550000000     0.092550000000     0          
T        Si     0.208150000000     0.351000000000     0.090150000000     0          
O        O      0.157200000000     0.250000000000     0.082600000000     0          
O        O      0.127600000000     0.204100000000     0.127600000000     0          
O        O      0.186450000000     0.186450000000     0.092550000000     0          
T        Si     0.149000000000     0.208150000000     0.090150000000     0          
O        O      0.417400000000     0.250000000000     0.342800000000     0          
O        O      0.372400000000     0.295900000000     0.372400000000     0          
O        O      0.407450000000     0.313550000000     0.313550000000     0          
T        Si     0.409850000000     0.291850000000     0.351000000000     0          
O        O      0.250000000000     0.417400000000     0.342800000000     0          
O        O      0.204100000000     0.372400000000     0.372400000000     0          
O        O      0.186450000000     0.407450000000     0.313550000000     0          
T        Si     0.208150000000     0.409850000000     0.351000000000     0          
O        O      0.082600000000     0.250000000000     0.342800000000     0          
O        O      0.127600000000     0.204100000000     0.372400000000     0          
O        O      0.092550000000     0.186450000000     0.313550000000     0          
T        Si     0.090150000000     0.208150000000     0.351000000000     0          
O        O      0.250000000000     0.082600000000     0.342800000000     0          
O        O      0.295900000000     0.127600000000     0.372400000000     0          
O        O      0.313550000000     0.092550000000     0.313550000000     0          
T        Si     0.291850000000     0.090150000000     0.351000000000     0          
O        O      0.417400000000     0.250000000000     0.157200000000     0          
O        O      0.372400000000     0.204100000000     0.127600000000     0          
O        O      0.407450000000     0.186450000000     0.186450000000     0          
T        Si     0.409850000000     0.208150000000     0.149000000000     0          
O        O      0.250000000000     0.417400000000     0.157200000000     0          
O        O      0.295900000000     0.372400000000     0.127600000000     0          
O        O      0.313550000000     0.407450000000     0.186450000000     0          
T        Si     0.291850000000     0.409850000000     0.149000000000     0          
O        O      0.082600000000     0.250000000000     0.157200000000     0          
O        O      0.127600000000     0.295900000000     0.127600000000     0          
O        O      0.092550000000     0.313550000000     0.186450000000     0          
T        Si     0.090150000000     0.291850000000     0.149000000000     0          
O        O      0.250000000000     0.082600000000     0.157200000000     0          
O        O      0.204100000000     0.127600000000     0.127600000000     0          
O        O      0.186450000000     0.092550000000     0.186450000000     0          
T        Si     0.208150000000     0.090150000000     0.149000000000     0          
O        O      0.342800000000     0.417400000000     0.250000000000     0          
O        O      0.372400000000     0.372400000000     0.295900000000     0          
O        O      0.313550000000     0.407450000000     0.313550000000     0          
T        Si     0.351000000000     0.409850000000     0.291850000000     0          
O        O      0.342800000000     0.082600000000     0.250000000000     0          
O        O      0.372400000000     0.127600000000     0.204100000000     0          
O        O      0.313550000000     0.092550000000     0.186450000000     0          
T        Si     0.351000000000     0.090150000000     0.208150000000     0          
O        O      0.417400000000     0.342800000000     0.250000000000     0          
O        O      0.372400000000     0.372400000000     0.204100000000     0          
O        O      0.407450000000     0.313550000000     0.186450000000     0          
T        Si     0.409850000000     0.351000000000     0.208150000000     0          
O        O      0.157200000000     0.417400000000     0.250000000000     0          
O        O      0.127600000000     0.372400000000     0.204100000000     0          
O        O      0.186450000000     0.407450000000     0.186450000000     0          
T        Si     0.149000000000     0.409850000000     0.208150000000     0          
O        O      0.082600000000     0.157200000000     0.250000000000     0          
O        O      0.127600000000     0.127600000000     0.204100000000     0          
O        O      0.092550000000     0.186450000000     0.186450000000     0          
T        Si     0.090150000000     0.149000000000     0.208150000000     0          
O        O      0.157200000000     0.082600000000     0.250000000000     0          
O        O      0.127600000000     0.127600000000     0.295900000000     0          
O        O      0.186450000000     0.092550000000     0.313550000000     0          
T        Si     0.149000000000     0.090150000000     0.291850000000     0          
O        O      0.417400000000     0.157200000000     0.250000000000     0          
O        O      0.372400000000     0.127600000000     0.295900000000     0          
O        O      0.407450000000     0.186450000000     0.313550000000     0          
T        Si     0.409850000000     0.149000000000     0.291850000000     0          
O        O      0.082600000000     0.342800000000     0.250000000000     0          
O        O      0.127600000000     0.372400000000     0.295900000000     0          
O        O      0.092550000000     0.313550000000     0.313550000000     0          
T        Si     0.090150000000     0.351000000000     0.291850000000     0          
T        Si     0.208150000000     0.149000000000     0.090150000000     0          
T        Si     0.351000000000     0.208150000000     0.090150000000     0          
T        Si     0.291850000000     0.351000000000     0.090150000000     0          
T        Si     0.149000000000     0.291850000000     0.090150000000     0          
T        Si     0.208150000000     0.351000000000     0.409850000000     0          
T        Si     0.149000000000     0.208150000000     0.409850000000     0          
T        Si     0.291850000000     0.149000000000     0.409850000000     0          
T        Si     0.351000000000     0.291850000000     0.409850000000     0          
T        Si     0.090150000000     0.208150000000     0.149000000000     0          
T        Si     0.291850000000     0.090150000000     0.149000000000     0          
T        Si     0.409850000000     0.291850000000     0.149000000000     0          
T        Si     0.208150000000     0.409850000000     0.149000000000     0          
T        Si     0.090150000000     0.291850000000     0.351000000000     0          
T        Si     0.208150000000     0.090150000000     0.351000000000     0          
T        Si     0.409850000000     0.208150000000     0.351000000000     0          
T        Si     0.291850000000     0.409850000000     0.351000000000     0          
T        Si     0.149000000000     0.090150000000     0.208150000000     0          
T        Si     0.149000000000     0.409850000000     0.291850000000     0          
T        Si     0.090150000000     0.149000000000     0.291850000000     0          
T        Si     0.351000000000     0.090150000000     0.291850000000     0          
T        Si     0.409850000000     0.351000000000     0.291850000000     0          
T        Si     0.351000000000     0.409850000000     0.208150000000     0          
T        Si     0.090150000000     0.351000000000     0.208150000000     0          
T        Si     0.409850000000     0.149000000000     0.208150000000     0          
O        O      0.000000000000     0.092800000000     0.667400000000     0          
O        O      0.045900000000     0.122400000000     0.622400000000     0          
O        O      0.057900000000     0.125000000000     0.692100000000     0          
O        O      0.063550000000     0.063550000000     0.657450000000     0          
T        Si     0.041850000000     0.101000000000     0.659850000000     0          
O        O      0.407200000000     0.000000000000     0.667400000000     0          
O        O      0.377600000000     0.045900000000     0.622400000000     0          
O        O      0.375000000000     0.057900000000     0.692100000000     0          
O        O      0.436450000000     0.063550000000     0.657450000000     0          
T        Si     0.399000000000     0.041850000000     0.659850000000     0          
O        O      0.000000000000     0.407200000000     0.667400000000     0          
O        O      0.454100000000     0.377600000000     0.622400000000     0          
O        O      0.442100000000     0.375000000000     0.692100000000     0          
O        O      0.436450000000     0.436450000000     0.657450000000     0          
T        Si     0.458150000000     0.399000000000     0.659850000000     0          
O        O      0.092800000000     0.000000000000     0.667400000000     0          
O        O      0.122400000000     0.454100000000     0.622400000000     0          
O        O      0.125000000000     0.442100000000     0.692100000000     0          
O        O      0.063550000000     0.436450000000     0.657450000000     0          
T        Si     0.101000000000     0.458150000000     0.659850000000     0          
O        O      0.000000000000     0.407200000000     0.832600000000     0          
O        O      0.045900000000     0.377600000000     0.877600000000     0          
O        O      0.057900000000     0.375000000000     0.807900000000     0          
O        O      0.063550000000     0.436450000000     0.842550000000     0          
T        Si     0.041850000000     0.399000000000     0.840150000000     0          
O        O      0.092800000000     0.000000000000     0.832600000000     0          
O        O      0.122400000000     0.045900000000     0.877600000000     0          
O        O      0.125000000000     0.057900000000     0.807900000000     0          
O        O      0.063550000000     0.063550000000     0.842550000000     0          
T        Si     0.101000000000     0.041850000000     0.840150000000     0          
O        O      0.000000000000     0.092800000000     0.832600000000     0          
O        O      0.454100000000     0.122400000000     0.877600000000     0          
O        O      0.442100000000     0.125000000000     0.807900000000     0          
O        O      0.436450000000     0.063550000000     0.842550000000     0          
T        Si     0.458150000000     0.101000000000     0.840150000000     0          
O        O      0.407200000000     0.000000000000     0.832600000000     0          
O        O      0.377600000000     0.454100000000     0.877600000000     0          
O        O      0.375000000000     0.442100000000     0.807900000000     0          
O        O      0.436450000000     0.436450000000     0.842550000000     0          
T        Si     0.399000000000     0.458150000000     0.840150000000     0          
O        O      0.167400000000     0.000000000000     0.592800000000     0          
O        O      0.122400000000     0.045900000000     0.622400000000     0          
O        O      0.192100000000     0.057900000000     0.625000000000     0          
O        O      0.157450000000     0.063550000000     0.563550000000     0          
T        Si     0.159850000000     0.041850000000     0.601000000000     0          
O        O      0.000000000000     0.167400000000     0.592800000000     0          
O        O      0.454100000000     0.122400000000     0.622400000000     0          
O        O      0.442100000000     0.192100000000     0.625000000000     0          
O        O      0.436450000000     0.157450000000     0.563550000000     0          
T        Si     0.458150000000     0.159850000000     0.601000000000     0          
O        O      0.332600000000     0.000000000000     0.592800000000     0          
O        O      0.377600000000     0.454100000000     0.622400000000     0          
O        O      0.307900000000     0.442100000000     0.625000000000     0          
O        O      0.342550000000     0.436450000000     0.563550000000     0          
T        Si     0.340150000000     0.458150000000     0.601000000000     0          
O        O      0.000000000000     0.332600000000     0.592800000000     0          
O        O      0.045900000000     0.377600000000     0.622400000000     0          
O        O      0.057900000000     0.307900000000     0.625000000000     0          
O        O      0.063550000000     0.342550000000     0.563550000000     0          
T        Si     0.041850000000     0.340150000000     0.601000000000     0          
O        O      0.167400000000     0.000000000000     0.907200000000     0          
O        O      0.122400000000     0.454100000000     0.877600000000     0          
O        O      0.192100000000     0.442100000000     0.875000000000     0          
O        O      0.157450000000     0.436450000000     0.936450000000     0          
T        Si     0.159850000000     0.458150000000     0.899000000000     0          
O        O      0.000000000000     0.167400000000     0.907200000000     0          
O        O      0.045900000000     0.122400000000     0.877600000000     0          
O        O      0.057900000000     0.192100000000     0.875000000000     0          
O        O      0.063550000000     0.157450000000     0.936450000000     0          
T        Si     0.041850000000     0.159850000000     0.899000000000     0          
O        O      0.332600000000     0.000000000000     0.907200000000     0          
O        O      0.377600000000     0.045900000000     0.877600000000     0          
O        O      0.307900000000     0.057900000000     0.875000000000     0          
O        O      0.342550000000     0.063550000000     0.936450000000     0          
T        Si     0.340150000000     0.041850000000     0.899000000000     0          
O        O      0.000000000000     0.332600000000     0.907200000000     0          
O        O      0.454100000000     0.377600000000     0.877600000000     0          
O        O      0.442100000000     0.307900000000     0.875000000000     0          
O        O      0.436450000000     0.342550000000     0.936450000000     0          
T        Si     0.458150000000     0.340150000000     0.899000000000     0          
O        O      0.092800000000     0.167400000000     0.500000000000     0          
O        O      0.122400000000     0.122400000000     0.545900000000     0          
O        O      0.125000000000     0.192100000000     0.557900000000     0          
O        O      0.063550000000     0.157450000000     0.563550000000     0          
T        Si     0.101000000000     0.159850000000     0.541850000000     0          
O        O      0.092800000000     0.332600000000     0.500000000000     0          
O        O      0.122400000000     0.377600000000     0.954100000000     0          
O        O      0.125000000000     0.307900000000     0.942100000000     0          
O        O      0.063550000000     0.342550000000     0.936450000000     0          
T        Si     0.101000000000     0.340150000000     0.958150000000     0          
O        O      0.167400000000     0.092800000000     0.500000000000     0          
O        O      0.122400000000     0.122400000000     0.954100000000     0          
O        O      0.192100000000     0.125000000000     0.942100000000     0          
O        O      0.157450000000     0.063550000000     0.936450000000     0          
T        Si     0.159850000000     0.101000000000     0.958150000000     0          
O        O      0.407200000000     0.167400000000     0.500000000000     0          
O        O      0.377600000000     0.122400000000     0.954100000000     0          
O        O      0.375000000000     0.192100000000     0.942100000000     0          
O        O      0.436450000000     0.157450000000     0.936450000000     0          
T        Si     0.399000000000     0.159850000000     0.958150000000     0          
O        O      0.332600000000     0.407200000000     0.500000000000     0          
O        O      0.377600000000     0.377600000000     0.954100000000     0          
O        O      0.307900000000     0.375000000000     0.942100000000     0          
O        O      0.342550000000     0.436450000000     0.936450000000     0          
T        Si     0.340150000000     0.399000000000     0.958150000000     0          
O        O      0.407200000000     0.332600000000     0.500000000000     0          
O        O      0.377600000000     0.377600000000     0.545900000000     0          
O        O      0.375000000000     0.307900000000     0.557900000000     0          
O        O      0.436450000000     0.342550000000     0.563550000000     0          
T        Si     0.399000000000     0.340150000000     0.541850000000     0          
O        O      0.167400000000     0.407200000000     0.500000000000     0          
O        O      0.122400000000     0.377600000000     0.545900000000     0          
O        O      0.192100000000     0.375000000000     0.557900000000     0          
O        O      0.157450000000     0.436450000000     0.563550000000     0          
T        Si     0.159850000000     0.399000000000     0.541850000000     0          
O        O      0.332600000000     0.092800000000     0.500000000000     0          
O        O      0.377600000000     0.122400000000     0.545900000000     0          
O        O      0.307900000000     0.125000000000     0.557900000000     0          
O        O      0.342550000000     0.063550000000     0.563550000000     0          
T        Si     0.340150000000     0.101000000000     0.541850000000     0          
O        O      0.442100000000     0.375000000000     0.807900000000     0          
T        Si     0.458150000000     0.399000000000     0.840150000000     0          
O        O      0.125000000000     0.442100000000     0.807900000000     0          
T        Si     0.101000000000     0.458150000000     0.840150000000     0          
O        O      0.057900000000     0.125000000000     0.807900000000     0          
T        Si     0.041850000000     0.101000000000     0.840150000000     0          
O        O      0.375000000000     0.057900000000     0.807900000000     0          
T        Si     0.399000000000     0.041850000000     0.840150000000     0          
O        O      0.442100000000     0.125000000000     0.692100000000     0          
T        Si     0.458150000000     0.101000000000     0.659850000000     0          
O        O      0.375000000000     0.442100000000     0.692100000000     0          
T        Si     0.399000000000     0.458150000000     0.659850000000     0          
O        O      0.057900000000     0.375000000000     0.692100000000     0          
T        Si     0.041850000000     0.399000000000     0.659850000000     0          
O        O      0.125000000000     0.057900000000     0.692100000000     0          
T        Si     0.101000000000     0.041850000000     0.659850000000     0          
O        O      0.307900000000     0.442100000000     0.875000000000     0          
T        Si     0.340150000000     0.458150000000     0.899000000000     0          
O        O      0.057900000000     0.307900000000     0.875000000000     0          
T        Si     0.041850000000     0.340150000000     0.899000000000     0          
O        O      0.192100000000     0.057900000000     0.875000000000     0          
T        Si     0.159850000000     0.041850000000     0.899000000000     0          
O        O      0.442100000000     0.192100000000     0.875000000000     0          
T        Si     0.458150000000     0.159850000000     0.899000000000     0          
O        O      0.307900000000     0.057900000000     0.625000000000     0          
T        Si     0.340150000000     0.041850000000     0.601000000000     0          
O        O      0.442100000000     0.307900000000     0.625000000000     0          
T        Si     0.458150000000     0.340150000000     0.601000000000     0          
O        O      0.192100000000     0.442100000000     0.625000000000     0          
T        Si     0.159850000000     0.458150000000     0.601000000000     0          
O        O      0.057900000000     0.192100000000     0.625000000000     0          
T        Si     0.041850000000     0.159850000000     0.601000000000     0          
O        O      0.375000000000     0.307900000000     0.942100000000     0          
T        Si     0.399000000000     0.340150000000     0.958150000000     0          
O        O      0.375000000000     0.192100000000     0.557900000000     0          
T        Si     0.399000000000     0.159850000000     0.541850000000     0          
O        O      0.307900000000     0.375000000000     0.557900000000     0          
T        Si     0.340150000000     0.399000000000     0.541850000000     0          
O        O      0.125000000000     0.307900000000     0.557900000000     0          
T        Si     0.101000000000     0.340150000000     0.541850000000     0          
O        O      0.192100000000     0.125000000000     0.557900000000     0          
T        Si     0.159850000000     0.101000000000     0.541850000000     0          
O        O      0.125000000000     0.192100000000     0.942100000000     0          
T        Si     0.101000000000     0.159850000000     0.958150000000     0          
O        O      0.307900000000     0.125000000000     0.942100000000     0          
T        Si     0.340150000000     0.101000000000     0.958150000000     0          
O        O      0.192100000000     0.375000000000     0.942100000000     0          
T        Si     0.159850000000     0.399000000000     0.958150000000     0          
O        O      0.250000000000     0.342800000000     0.917400000000     0          
O        O      0.295900000000     0.372400000000     0.872400000000     0          
O        O      0.313550000000     0.313550000000     0.907450000000     0          
T        Si     0.291850000000     0.351000000000     0.909850000000     0          
O        O      0.157200000000     0.250000000000     0.917400000000     0          
O        O      0.127600000000     0.295900000000     0.872400000000     0          
O        O      0.186450000000     0.313550000000     0.907450000000     0          
T        Si     0.149000000000     0.291850000000     0.909850000000     0          
O        O      0.250000000000     0.157200000000     0.917400000000     0          
O        O      0.204100000000     0.127600000000     0.872400000000     0          
O        O      0.186450000000     0.186450000000     0.907450000000     0          
T        Si     0.208150000000     0.149000000000     0.909850000000     0          
O        O      0.342800000000     0.250000000000     0.917400000000     0          
O        O      0.372400000000     0.204100000000     0.872400000000     0          
O        O      0.313550000000     0.186450000000     0.907450000000     0          
T        Si     0.351000000000     0.208150000000     0.909850000000     0          
O        O      0.250000000000     0.157200000000     0.582600000000     0          
O        O      0.295900000000     0.127600000000     0.627600000000     0          
O        O      0.313550000000     0.186450000000     0.592550000000     0          
T        Si     0.291850000000     0.149000000000     0.590150000000     0          
O        O      0.342800000000     0.250000000000     0.582600000000     0          
O        O      0.372400000000     0.295900000000     0.627600000000     0          
O        O      0.313550000000     0.313550000000     0.592550000000     0          
T        Si     0.351000000000     0.291850000000     0.590150000000     0          
O        O      0.250000000000     0.342800000000     0.582600000000     0          
O        O      0.204100000000     0.372400000000     0.627600000000     0          
O        O      0.186450000000     0.313550000000     0.592550000000     0          
T        Si     0.208150000000     0.351000000000     0.590150000000     0          
O        O      0.157200000000     0.250000000000     0.582600000000     0          
O        O      0.127600000000     0.204100000000     0.627600000000     0          
O        O      0.186450000000     0.186450000000     0.592550000000     0          
T        Si     0.149000000000     0.208150000000     0.590150000000     0          
O        O      0.417400000000     0.250000000000     0.842800000000     0          
O        O      0.372400000000     0.295900000000     0.872400000000     0          
O        O      0.407450000000     0.313550000000     0.813550000000     0          
T        Si     0.409850000000     0.291850000000     0.851000000000     0          
O        O      0.250000000000     0.417400000000     0.842800000000     0          
O        O      0.204100000000     0.372400000000     0.872400000000     0          
O        O      0.186450000000     0.407450000000     0.813550000000     0          
T        Si     0.208150000000     0.409850000000     0.851000000000     0          
O        O      0.082600000000     0.250000000000     0.842800000000     0          
O        O      0.127600000000     0.204100000000     0.872400000000     0          
O        O      0.092550000000     0.186450000000     0.813550000000     0          
T        Si     0.090150000000     0.208150000000     0.851000000000     0          
O        O      0.250000000000     0.082600000000     0.842800000000     0          
O        O      0.295900000000     0.127600000000     0.872400000000     0          
O        O      0.313550000000     0.092550000000     0.813550000000     0          
T        Si     0.291850000000     0.090150000000     0.851000000000     0          
O        O      0.417400000000     0.250000000000     0.657200000000     0          
O        O      0.372400000000     0.204100000000     0.627600000000     0          
O        O      0.407450000000     0.186450000000     0.686450000000     0          
T        Si     0.409850000000     0.208150000000     0.649000000000     0          
O        O      0.250000000000     0.417400000000     0.657200000000     0          
O        O      0.295900000000     0.372400000000     0.627600000000     0          
O        O      0.313550000000     0.407450000000     0.686450000000     0          
T        Si     0.291850000000     0.409850000000     0.649000000000     0          
O        O      0.082600000000     0.250000000000     0.657200000000     0          
O        O      0.127600000000     0.295900000000     0.627600000000     0          
O        O      0.092550000000     0.313550000000     0.686450000000     0          
T        Si     0.090150000000     0.291850000000     0.649000000000     0          
O        O      0.250000000000     0.082600000000     0.657200000000     0          
O        O      0.204100000000     0.127600000000     0.627600000000     0          
O        O      0.186450000000     0.092550000000     0.686450000000     0          
T        Si     0.208150000000     0.090150000000     0.649000000000     0          
O        O      0.342800000000     0.417400000000     0.750000000000     0          
O        O      0.372400000000     0.372400000000     0.795900000000     0          
O        O      0.313550000000     0.407450000000     0.813550000000     0          
T        Si     0.351000000000     0.409850000000     0.791850000000     0          
O        O      0.342800000000     0.082600000000     0.750000000000     0          
O        O      0.372400000000     0.127600000000     0.704100000000     0          
O        O      0.313550000000     0.092550000000     0.686450000000     0          
T        Si     0.351000000000     0.090150000000     0.708150000000     0          
O        O      0.417400000000     0.342800000000     0.750000000000     0          
O        O      0.372400000000     0.372400000000     0.704100000000     0          
O        O      0.407450000000     0.313550000000     0.686450000000     0          
T        Si     0.409850000000     0.351000000000     0.708150000000     0          
O        O      0.157200000000     0.417400000000     0.750000000000     0          
O        O      0.127600000000     0.372400000000     0.704100000000     0          
O        O      0.186450000000     0.407450000000     0.686450000000     0          
T        Si     0.149000000000     0.409850000000     0.708150000000     0          
O        O      0.082600000000     0.157200000000     0.750000000000     0          
O        O      0.127600000000     0.127600000000     0.704100000000     0          
O        O      0.092550000000     0.186450000000     0.686450000000     0          
T        Si     0.090150000000     0.149000000000     0.708150000000     0          
O        O      0.157200000000     0.082600000000     0.750000000000     0          
O        O      0.127600000000     0.127600000000     0.795900000000     0          
O        O      0.186450000000     0.092550000000     0.813550000000     0          
T        Si     0.149000000000     0.090150000000     0.791850000000     0          
O        O      0.417400000000     0.157200000000     0.750000000000     0          
O        O      0.372400000000     0.127600000000     0.795900000000     0          
O        O      0.407450000000     0.186450000000     0.813550000000     0          
T        Si     0.409850000000     0.149000000000     0.791850000000     0          
O        O      0.082600000000     0.342800000000     0.750000000000     0          
O        O      0.127600000000     0.372400000000     0.795900000000     0          
O        O      0.092550000000     0.313550000000     0.813550000000     0          
T        Si     0.090150000000     0.351000000000     0.791850000000     0          
T        Si     0.208150000000     0.149000000000     0.590150000000     0          
T        Si     0.351000000000     0.208150000000     0.590150000000     0          
T        Si     0.291850000000     0.351000000000     0.590150000000     0          
T        Si     0.149000000000     0.291850000000     0.590150000000     0          
T        Si     0.208150000000     0.351000000000     0.909850000000     0          
T        Si     0.149000000000     0.208150000000     0.909850000000     0          
T        Si     0.291850000000     0.149000000000     0.909850000000     0          
T        Si     0.351000000000     0.291850000000     0.909850000000     0          
T        Si     0.090150000000     0.208150000000     0.649000000000     0          
T        Si     0.291850000000     0.090150000000     0.649000000000     0          
T        Si     0.409850000000     0.291850000000     0.649000000000     0          
T        Si     0.208150000000     0.409850000000     0.649000000000     0          
T        Si     0.090150000000     0.291850000000     0.851000000000     0          
T        Si     0.208150000000     0.090150000000     0.851000000000     0          
T        Si     0.409850000000     0.208150000000     0.851000000000     0          
T        Si     0.291850000000     0.409850000000     0.851000000000     0          
T        Si     0.149000000000     0.090150000000     0.708150000000     0          
T        Si     0.149000000000     0.409850000000     0.791850000000     0          
T        Si     0.090150000000     0.149000000000     0.791850000000     0          
T        Si     0.351000000000     0.090150000000     0.791850000000     0          
T        Si     0.409850000000     0.351000000000     0.791850000000     0          
T        Si     0.351000000000     0.409850000000     0.708150000000     0          
T        Si     0.090150000000     0.351000000000     0.708150000000     0          
T        Si     0.409850000000     0.149000000000     0.708150000000     0          
O        O      0.000000000000     0.592800000000     0.167400000000     0          
O        O      0.045900000000     0.622400000000     0.122400000000     0          
O        O      0.057900000000     0.625000000000     0.192100000000     0          
O        O      0.063550000000     0.563550000000     0.157450000000     0          
T        Si     0.041850000000     0.601000000000     0.159850000000     0          
O        O      0.407200000000     0.500000000000     0.167400000000     0          
O        O      0.377600000000     0.545900000000     0.122400000000     0          
O        O      0.375000000000     0.557900000000     0.192100000000     0          
O        O      0.436450000000     0.563550000000     0.157450000000     0          
T        Si     0.399000000000     0.541850000000     0.159850000000     0          
O        O      0.000000000000     0.907200000000     0.167400000000     0          
O        O      0.454100000000     0.877600000000     0.122400000000     0          
O        O      0.442100000000     0.875000000000     0.192100000000     0          
O        O      0.436450000000     0.936450000000     0.157450000000     0          
T        Si     0.458150000000     0.899000000000     0.159850000000     0          
O        O      0.092800000000     0.500000000000     0.167400000000     0          
O        O      0.122400000000     0.954100000000     0.122400000000     0          
O        O      0.125000000000     0.942100000000     0.192100000000     0          
O        O      0.063550000000     0.936450000000     0.157450000000     0          
T        Si     0.101000000000     0.958150000000     0.159850000000     0          
O        O      0.000000000000     0.907200000000     0.332600000000     0          
O        O      0.045900000000     0.877600000000     0.377600000000     0          
O        O      0.057900000000     0.875000000000     0.307900000000     0          
O        O      0.063550000000     0.936450000000     0.342550000000     0          
T        Si     0.041850000000     0.899000000000     0.340150000000     0          
O        O      0.092800000000     0.500000000000     0.332600000000     0          
O        O      0.122400000000     0.545900000000     0.377600000000     0          
O        O      0.125000000000     0.557900000000     0.307900000000     0          
O        O      0.063550000000     0.563550000000     0.342550000000     0          
T        Si     0.101000000000     0.541850000000     0.340150000000     0          
O        O      0.000000000000     0.592800000000     0.332600000000     0          
O        O      0.454100000000     0.622400000000     0.377600000000     0          
O        O      0.442100000000     0.625000000000     0.307900000000     0          
O        O      0.436450000000     0.563550000000     0.342550000000     0          
T        Si     0.458150000000     0.601000000000     0.340150000000     0          
O        O      0.407200000000     0.500000000000     0.332600000000     0          
O        O      0.377600000000     0.954100000000     0.377600000000     0          
O        O      0.375000000000     0.942100000000     0.307900000000     0          
O        O      0.436450000000     0.936450000000     0.342550000000     0          
T        Si     0.399000000000     0.958150000000     0.340150000000     0          
O        O      0.167400000000     0.500000000000     0.092800000000     0          
O        O      0.122400000000     0.545900000000     0.122400000000     0          
O        O      0.192100000000     0.557900000000     0.125000000000     0          
O        O      0.157450000000     0.563550000000     0.063550000000     0          
T        Si     0.159850000000     0.541850000000     0.101000000000     0          
O        O      0.000000000000     0.667400000000     0.092800000000     0          
O        O      0.454100000000     0.622400000000     0.122400000000     0          
O        O      0.442100000000     0.692100000000     0.125000000000     0          
O        O      0.436450000000     0.657450000000     0.063550000000     0          
T        Si     0.458150000000     0.659850000000     0.101000000000     0          
O        O      0.332600000000     0.500000000000     0.092800000000     0          
O        O      0.377600000000     0.954100000000     0.122400000000     0          
O        O      0.307900000000     0.942100000000     0.125000000000     0          
O        O      0.342550000000     0.936450000000     0.063550000000     0          
T        Si     0.340150000000     0.958150000000     0.101000000000     0          
O        O      0.000000000000     0.832600000000     0.092800000000     0          
O        O      0.045900000000     0.877600000000     0.122400000000     0          
O        O      0.057900000000     0.807900000000     0.125000000000     0          
O        O      0.063550000000     0.842550000000     0.063550000000     0          
T        Si     0.041850000000     0.840150000000     0.101000000000     0          
O        O      0.167400000000     0.500000000000     0.407200000000     0          
O        O      0.122400000000     0.954100000000     0.377600000000     0          
O        O      0.192100000000     0.942100000000     0.375000000000     0          
O        O      0.157450000000     0.936450000000     0.436450000000     0          
T        Si     0.159850000000     0.958150000000     0.399000000000     0          
O        O      0.000000000000     0.667400000000     0.407200000000     0          
O        O      0.045900000000     0.622400000000     0.377600000000     0          
O        O      0.057900000000     0.692100000000     0.375000000000     0          
O        O      0.063550000000     0.657450000000     0.436450000000     0          
T        Si     0.041850000000     0.659850000000     0.399000000000     0          
O        O      0.332600000000     0.500000000000     0.407200000000     0          
O        O      0.377600000000     0.545900000000     0.377600000000     0          
O        O      0.307900000000     0.557900000000     0.375000000000     0          
O        O      0.342550000000     0.563550000000     0.436450000000     0          
T        Si     0.340150000000     0.541850000000     0.399000000000     0          
O        O      0.000000000000     0.832600000000     0.407200000000     0          
O        O      0.454100000000     0.877600000000     0.377600000000     0          
O        O      0.442100000000     0.807900000000     0.375000000000     0          
O        O      0.436450000000     0.842550000000     0.436450000000     0          
T        Si     0.458150000000     0.840150000000     0.399000000000     0          
O        O      0.092800000000     0.667400000000     0.000000000000     0          
O        O      0.122400000000     0.622400000000     0.045900000000     0          
O        O      0.125000000000     0.692100000000     0.057900000000     0          
O        O      0.063550000000     0.657450000000     0.063550000000     0          
T        Si     0.101000000000     0.659850000000     0.041850000000     0          
O        O      0.092800000000     0.832600000000     0.000000000000     0          
O        O      0.122400000000     0.877600000000     0.454100000000     0          
O        O      0.125000000000     0.807900000000     0.442100000000     0          
O        O      0.063550000000     0.842550000000     0.436450000000     0          
T        Si     0.101000000000     0.840150000000     0.458150000000     0          
O        O      0.167400000000     0.592800000000     0.000000000000     0          
O        O      0.122400000000     0.622400000000     0.454100000000     0          
O        O      0.192100000000     0.625000000000     0.442100000000     0          
O        O      0.157450000000     0.563550000000     0.436450000000     0          
T        Si     0.159850000000     0.601000000000     0.458150000000     0          
O        O      0.407200000000     0.667400000000     0.000000000000     0          
O        O      0.377600000000     0.622400000000     0.454100000000     0          
O        O      0.375000000000     0.692100000000     0.442100000000     0          
O        O      0.436450000000     0.657450000000     0.436450000000     0          
T        Si     0.399000000000     0.659850000000     0.458150000000     0          
O        O      0.332600000000     0.907200000000     0.000000000000     0          
O        O      0.377600000000     0.877600000000     0.454100000000     0          
O        O      0.307900000000     0.875000000000     0.442100000000     0          
O        O      0.342550000000     0.936450000000     0.436450000000     0          
T        Si     0.340150000000     0.899000000000     0.458150000000     0          
O        O      0.407200000000     0.832600000000     0.000000000000     0          
O        O      0.377600000000     0.877600000000     0.045900000000     0          
O        O      0.375000000000     0.807900000000     0.057900000000     0          
O        O      0.436450000000     0.842550000000     0.063550000000     0          
T        Si     0.399000000000     0.840150000000     0.041850000000     0          
O        O      0.167400000000     0.907200000000     0.000000000000     0          
O        O      0.122400000000     0.877600000000     0.045900000000     0          
O        O      0.192100000000     0.875000000000     0.057900000000     0          
O        O      0.157450000000     0.936450000000     0.063550000000     0          
T        Si     0.159850000000     0.899000000000     0.041850000000     0          
O        O      0.332600000000     0.592800000000     0.000000000000     0          
O        O      0.377600000000     0.622400000000     0.045900000000     0          
O        O      0.307900000000     0.625000000000     0.057900000000     0          
O        O      0.342550000000     0.563550000000     0.063550000000     0          
T        Si     0.340150000000     0.601000000000     0.041850000000     0          
O        O      0.442100000000     0.875000000000     0.307900000000     0          
T        Si     0.458150000000     0.899000000000     0.340150000000     0          
O        O      0.125000000000     0.942100000000     0.307900000000     0          
T        Si     0.101000000000     0.958150000000     0.340150000000     0          
O        O      0.057900000000     0.625000000000     0.307900000000     0          
T        Si     0.041850000000     0.601000000000     0.340150000000     0          
O        O      0.375000000000     0.557900000000     0.307900000000     0          
T        Si     0.399000000000     0.541850000000     0.340150000000     0          
O        O      0.442100000000     0.625000000000     0.192100000000     0          
T        Si     0.458150000000     0.601000000000     0.159850000000     0          
O        O      0.375000000000     0.942100000000     0.192100000000     0          
T        Si     0.399000000000     0.958150000000     0.159850000000     0          
O        O      0.057900000000     0.875000000000     0.192100000000     0          
T        Si     0.041850000000     0.899000000000     0.159850000000     0          
O        O      0.125000000000     0.557900000000     0.192100000000     0          
T        Si     0.101000000000     0.541850000000     0.159850000000     0          
O        O      0.307900000000     0.942100000000     0.375000000000     0          
T        Si     0.340150000000     0.958150000000     0.399000000000     0          
O        O      0.057900000000     0.807900000000     0.375000000000     0          
T        Si     0.041850000000     0.840150000000     0.399000000000     0          
O        O      0.192100000000     0.557900000000     0.375000000000     0          
T        Si     0.159850000000     0.541850000000     0.399000000000     0          
O        O      0.442100000000     0.692100000000     0.375000000000     0          
T        Si     0.458150000000     0.659850000000     0.399000000000     0          
O        O      0.307900000000     0.557900000000     0.125000000000     0          
T        Si     0.340150000000     0.541850000000     0.101000000000     0          
O        O      0.442100000000     0.807900000000     0.125000000000     0          
T        Si     0.458150000000     0.840150000000     0.101000000000     0          
O        O      0.192100000000     0.942100000000     0.125000000000     0          
T        Si     0.159850000000     0.958150000000     0.101000000000     0          
O        O      0.057900000000     0.692100000000     0.125000000000     0          
T        Si     0.041850000000     0.659850000000     0.101000000000     0          
O        O      0.375000000000     0.807900000000     0.442100000000     0          
T        Si     0.399000000000     0.840150000000     0.458150000000     0          
O        O      0.375000000000     0.692100000000     0.057900000000     0          
T        Si     0.399000000000     0.659850000000     0.041850000000     0          
O        O      0.307900000000     0.875000000000     0.057900000000     0          
T        Si     0.340150000000     0.899000000000     0.041850000000     0          
O        O      0.125000000000     0.807900000000     0.057900000000     0          
T        Si     0.101000000000     0.840150000000     0.041850000000     0          
O        O      0.192100000000     0.625000000000     0.057900000000     0          
T        Si     0.159850000000     0.601000000000     0.041850000000     0          
O        O      0.125000000000     0.692100000000     0.442100000000     0          
T        Si     0.101000000000     0.659850000000     0.458150000000     0          
O        O      0.307900000000     0.625000000000     0.442100000000     0          
T        Si     0.340150000000     0.601000000000     0.458150000000     0          
O        O      0.192100000000     0.875000000000     0.442100000000     0          
T        Si     0.159850000000     0.899000000000     0.458150000000     0          
O        O      0.250000000000     0.842800000000     0.417400000000     0          
O        O      0.295900000000     0.872400000000     0.372400000000     0          
O        O      0.313550000000     0.813550000000     0.407450000000     0          
T        Si     0.291850000000     0.851000000000     0.409850000000     0          
O        O      0.157200000000     0.750000000000     0.417400000000     0          
O        O      0.127600000000     0.795900000000     0.372400000000     0          
O        O      0.186450000000     0.813550000000     0.407450000000     0          
T        Si     0.149000000000     0.791850000000     0.409850000000     0          
O        O      0.250000000000     0.657200000000     0.417400000000     0          
O        O      0.204100000000     0.627600000000     0.372400000000     0          
O        O      0.186450000000     0.686450000000     0.407450000000     0          
T        Si     0.208150000000     0.649000000000     0.409850000000     0          
O        O      0.342800000000     0.750000000000     0.417400000000     0          
O        O      0.372400000000     0.704100000000     0.372400000000     0          
O        O      0.313550000000     0.686450000000     0.407450000000     0          
T        Si     0.351000000000     0.708150000000     0.409850000000     0          
O        O      0.250000000000     0.657200000000     0.082600000000     0          
O        O      0.295900000000     0.627600000000     0.127600000000     0          
O        O      0.313550000000     0.686450000000     0.092550000000     0          
T        Si     0.291850000000     0.649000000000     0.090150000000     0          
O        O      0.342800000000     0.750000000000     0.082600000000     0          
O        O      0.372400000000     0.795900000000     0.127600000000     0          
O        O      0.313550000000     0.813550000000     0.092550000000     0          
T        Si     0.351000000000     0.791850000000     0.090150000000     0          
O        O      0.250000000000     0.842800000000     0.082600000000     0          
O        O      0.204100000000     0.872400000000     0.127600000000     0          
O        O      0.186450000000     0.813550000000     0.092550000000     0          
T        Si     0.208150000000     0.851000000000     0.090150000000     0          
O        O      0.157200000000     0.750000000000     0.082600000000     0          
O        O      0.127600000000     0.704100000000     0.127600000000     0          
O        O      0.186450000000     0.686450000000     0.092550000000     0          
T        Si     0.149000000000     0.708150000000     0.090150000000     0          
O        O      0.417400000000     0.750000000000     0.342800000000     0          
O        O      0.372400000000     0.795900000000     0.372400000000     0          
O        O      0.407450000000     0.813550000000     0.313550000000     0          
T        Si     0.409850000000     0.791850000000     0.351000000000     0          
O        O      0.250000000000     0.917400000000     0.342800000000     0          
O        O      0.204100000000     0.872400000000     0.372400000000     0          
O        O      0.186450000000     0.907450000000     0.313550000000     0          
T        Si     0.208150000000     0.909850000000     0.351000000000     0          
O        O      0.082600000000     0.750000000000     0.342800000000     0          
O        O      0.127600000000     0.704100000000     0.372400000000     0          
O        O      0.092550000000     0.686450000000     0.313550000000     0          
T        Si     0.090150000000     0.708150000000     0.351000000000     0          
O        O      0.250000000000     0.582600000000     0.342800000000     0          
O        O      0.295900000000     0.627600000000     0.372400000000     0          
O        O      0.313550000000     0.592550000000     0.313550000000     0          
T        Si     0.291850000000     0.590150000000     0.351000000000     0          
O        O      0.417400000000     0.750000000000     0.157200000000     0          
O        O      0.372400000000     0.704100000000     0.127600000000     0          
O        O      0.407450000000     0.686450000000     0.186450000000     0          
T        Si     0.409850000000     0.708150000000     0.149000000000     0          
O        O      0.250000000000     0.917400000000     0.157200000000     0          
O        O      0.295900000000     0.872400000000     0.127600000000     0          
O        O      0.313550000000     0.907450000000     0.186450000000     0          
T        Si     0.291850000000     0.909850000000     0.149000000000     0          
O        O      0.082600000000     0.750000000000     0.157200000000     0          
O        O      0.127600000000     0.795900000000     0.127600000000     0          
O        O      0.092550000000     0.813550000000     0.186450000000     0          
T        Si     0.090150000000     0.791850000000     0.149000000000     0          
O        O      0.250000000000     0.582600000000     0.157200000000     0          
O        O      0.204100000000     0.627600000000     0.127600000000     0          
O        O      0.186450000000     0.592550000000     0.186450000000     0          
T        Si     0.208150000000     0.590150000000     0.149000000000     0          
O        O      0.342800000000     0.917400000000     0.250000000000     0          
O        O      0.372400000000     0.872400000000     0.295900000000     0          
O        O      0.313550000000     0.907450000000     0.313550000000     0          
T        Si     0.351000000000     0.909850000000     0.291850000000     0          
O        O      0.342800000000     0.582600000000     0.250000000000     0          
O        O      0.372400000000     0.627600000000     0.204100000000     0          
O        O      0.313550000000     0.592550000000     0.186450000000     0          
T        Si     0.351000000000     0.590150000000     0.208150000000     0          
O        O      0.417400000000     0.842800000000     0.250000000000     0          
O        O      0.372400000000     0.872400000000     0.204100000000     0          
O        O      0.407450000000     0.813550000000     0.186450000000     0          
T        Si     0.409850000000     0.851000000000     0.208150000000     0          
O        O      0.157200000000     0.917400000000     0.250000000000     0          
O        O      0.127600000000     0.872400000000     0.204100000000     0          
O        O      0.186450000000     0.907450000000     0.186450000000     0          
T        Si     0.149000000000     0.909850000000     0.208150000000     0          
O        O      0.082600000000     0.657200000000     0.250000000000     0          
O        O      0.127600000000     0.627600000000     0.204100000000     0          
O        O      0.092550000000     0.686450000000     0.186450000000     0          
T        Si     0.090150000000     0.649000000000     0.208150000000     0          
O        O      0.157200000000     0.582600000000     0.250000000000     0          
O        O      0.127600000000     0.627600000000     0.295900000000     0          
O        O      0.186450000000     0.592550000000     0.313550000000     0          
T        Si     0.149000000000     0.590150000000     0.291850000000     0          
O        O      0.417400000000     0.657200000000     0.250000000000     0          
O        O      0.372400000000     0.627600000000     0.295900000000     0          
O        O      0.407450000000     0.686450000000     0.313550000000     0          
T        Si     0.409850000000     0.649000000000     0.291850000000     0          
O        O      0.082600000000     0.842800000000     0.250000000000     0          
O        O      0.127600000000     0.872400000000     0.295900000000     0          
O        O      0.092550000000     0.813550000000     0.313550000000     0          
T        Si     0.090150000000     0.851000000000     0.291850000000     0          
T        Si     0.208150000000     0.649000000000     0.090150000000     0          
T        Si     0.351000000000     0.708150000000     0.090150000000     0          
T        Si     0.291850000000     0.851000000000     0.090150000000     0          
T        Si     0.149000000000     0.791850000000     0.090150000000     0          
T        Si     0.208150000000     0.851000000000     0.409850000000     0          
T        Si     0.149000000000     0.708150000000     0.409850000000     0          
T        Si     0.291850000000     0.649000000000     0.409850000000     0          
T        Si     0.351000000000     0.791850000000     0.409850000000     0          
T        Si     0.090150000000     0.708150000000     0.149000000000     0          
T        Si     0.291850000000     0.590150000000     0.149000000000     0          
T        Si     0.409850000000     0.791850000000     0.149000000000     0          
T        Si     0.208150000000     0.909850000000     0.149000000000     0          
T        Si     0.090150000000     0.791850000000     0.351000000000     0          
T        Si     0.208150000000     0.590150000000     0.351000000000     0          
T        Si     0.409850000000     0.708150000000     0.351000000000     0          
T        Si     0.291850000000     0.909850000000     0.351000000000     0          
T        Si     0.149000000000     0.590150000000     0.208150000000     0          
T        Si     0.149000000000     0.909850000000     0.291850000000     0          
T        Si     0.090150000000     0.649000000000     0.291850000000     0          
T        Si     0.351000000000     0.590150000000     0.291850000000     0          
T        Si     0.409850000000     0.851000000000     0.291850000000     0          
T        Si     0.351000000000     0.909850000000     0.208150000000     0          
T        Si     0.090150000000     0.851000000000     0.208150000000     0          
T        Si     0.409850000000     0.649000000000     0.208150000000     0          
O        O      0.000000000000     0.592800000000     0.667400000000     0          
O        O      0.045900000000     0.622400000000     0.622400000000     0          
O        O      0.057900000000     0.625000000000     0.692100000000     0          
O        O      0.063550000000     0.563550000000     0.657450000000     0          
T        Si     0.041850000000     0.601000000000     0.659850000000     0          
O        O      0.407200000000     0.500000000000     0.667400000000     0          
O        O      0.377600000000     0.545900000000     0.622400000000     0          
O        O      0.375000000000     0.557900000000     0.692100000000     0          
O        O      0.436450000000     0.563550000000     0.657450000000     0          
T        Si     0.399000000000     0.541850000000     0.659850000000     0          
O        O      0.000000000000     0.907200000000     0.667400000000     0          
O        O      0.454100000000     0.877600000000     0.622400000000     0          
O        O      0.442100000000     0.875000000000     0.692100000000     0          
O        O      0.436450000000     0.936450000000     0.657450000000     0          
T        Si     0.458150000000     0.899000000000     0.659850000000     0          
O        O      0.092800000000     0.500000000000     0.667400000000     0          
O        O      0.122400000000     0.954100000000     0.622400000000     0          
O        O      0.125000000000     0.942100000000     0.692100000000     0          
O        O      0.063550000000     0.936450000000     0.657450000000     0          
T        Si     0.101000000000     0.958150000000     0.659850000000     0          
O        O      0.000000000000     0.907200000000     0.832600000000     0          
O        O      0.045900000000     0.877600000000     0.877600000000     0          
O        O      0.057900000000     0.875000000000     0.807900000000     0          
O        O      0.063550000000     0.936450000000     0.842550000000     0          
T        Si     0.041850000000     0.899000000000     0.840150000000     0          
O        O      0.092800000000     0.500000000000     0.832600000000     0          
O        O      0.122400000000     0.545900000000     0.877600000000     0          
O        O      0.125000000000     0.557900000000     0.807900000000     0          
O        O      0.063550000000     0.563550000000     0.842550000000     0          
T        Si     0.101000000000     0.541850000000     0.840150000000     0          
O        O      0.000000000000     0.592800000000     0.832600000000     0          
O        O      0.454100000000     0.622400000000     0.877600000000     0          
O        O      0.442100000000     0.625000000000     0.807900000000     0          
O        O      0.436450000000     0.563550000000     0.842550000000     0          
T        Si     0.458150000000     0.601000000000     0.840150000000     0          
O        O      0.407200000000     0.500000000000     0.832600000000     0          
O        O      0.377600000000     0.954100000000     0.877600000000     0          
O        O      0.375000000000     0.942100000000     0.807900000000     0          
O        O      0.436450000000     0.936450000000     0.842550000000     0          
T        Si     0.399000000000     0.958150000000     0.840150000000     0          
O        O      0.167400000000     0.500000000000     0.592800000000     0          
O        O      0.122400000000     0.545900000000     0.622400000000     0          
O        O      0.192100000000     0.557900000000     0.625000000000     0          
O        O      0.157450000000     0.563550000000     0.563550000000     0          
T        Si     0.159850000000     0.541850000000     0.601000000000     0          
O        O      0.000000000000     0.667400000000     0.592800000000     0          
O        O      0.454100000000     0.622400000000     0.622400000000     0          
O        O      0.442100000000     0.692100000000     0.625000000000     0          
O        O      0.436450000000     0.657450000000     0.563550000000     0          
T        Si     0.458150000000     0.659850000000     0.601000000000     0          
O        O      0.332600000000     0.500000000000     0.592800000000     0          
O        O      0.377600000000     0.954100000000     0.622400000000     0          
O        O      0.307900000000     0.942100000000     0.625000000000     0          
O        O      0.342550000000     0.936450000000     0.563550000000     0          
T        Si     0.340150000000     0.958150000000     0.601000000000     0          
O        O      0.000000000000     0.832600000000     0.592800000000     0          
O        O      0.045900000000     0.877600000000     0.622400000000     0          
O        O      0.057900000000     0.807900000000     0.625000000000     0          
O        O      0.063550000000     0.842550000000     0.563550000000     0          
T        Si     0.041850000000     0.840150000000     0.601000000000     0          
O        O      0.167400000000     0.500000000000     0.907200000000     0          
O        O      0.122400000000     0.954100000000     0.877600000000     0          
O        O      0.192100000000     0.942100000000     0.875000000000     0          
O        O      0.157450000000     0.936450000000     0.936450000000     0          
T        Si     0.159850000000     0.958150000000     0.899000000000     0          
O        O      0.000000000000     0.667400000000     0.907200000000     0          
O        O      0.045900000000     0.622400000000     0.877600000000     0          
O        O      0.057900000000     0.692100000000     0.875000000000     0          
O        O      0.063550000000     0.657450000000     0.936450000000     0          
T        Si     0.041850000000     0.659850000000     0.899000000000     0          
O        O      0.332600000000     0.500000000000     0.907200000000     0          
O        O      0.377600000000     0.545900000000     0.877600000000     0          
O        O      0.307900000000     0.557900000000     0.875000000000     0          
O        O      0.342550000000     0.563550000000     0.936450000000     0          
T        Si     0.340150000000     0.541850000000     0.899000000000     0          
O        O      0.000000000000     0.832600000000     0.907200000000     0          
O        O      0.454100000000     0.877600000000     0.877600000000     0          
O        O      0.442100000000     0.807900000000     0.875000000000     0          
O        O      0.436450000000     0.842550000000     0.936450000000     0          
T        Si     0.458150000000     0.840150000000     0.899000000000     0          
O        O      0.092800000000     0.667400000000     0.500000000000     0          
O        O      0.122400000000     0.622400000000     0.545900000000     0          
O        O      0.125000000000     0.692100000000     0.557900000000     0          
O        O      0.063550000000     0.657450000000     0.563550000000     0          
T        Si     0.101000000000     0.659850000000     0.541850000000     0          
O        O      0.092800000000     0.832600000000     0.500000000000     0          
O        O      0.122400000000     0.877600000000     0.954100000000     0          
O        O      0.125000000000     0.807900000000     0.942100000000     0          
O        O      0.063550000000     0.842550000000     0.936450000000     0          
T        Si     0.101000000000     0.840150000000     0.958150000000     0          
O        O      0.167400000000     0.592800000000     0.500000000000     0          
O        O      0.122400000000     0.622400000000     0.954100000000     0          
O        O      0.192100000000     0.625000000000     0.942100000000     0          
O        O      0.157450000000     0.563550000000     0.936450000000     0          
T        Si     0.159850000000     0.601000000000     0.958150000000     0          
O        O      0.407200000000     0.667400000000     0.500000000000     0          
O        O      0.377600000000     0.622400000000     0.954100000000     0          
O        O      0.375000000000     0.692100000000     0.942100000000     0          
O        O      0.436450000000     0.657450000000     0.936450000000     0          
T        Si     0.399000000000     0.659850000000     0.958150000000     0          
O        O      0.332600000000     0.907200000000     0.500000000000     0          
O        O      0.377600000000     0.877600000000     0.954100000000     0          
O        O      0.307900000000     0.875000000000     0.942100000000     0          
O        O      0.342550000000     0.936450000000     0.936450000000     0          
T        Si     0.340150000000     0.899000000000     0.958150000000     0          
O        O      0.407200000000     0.832600000000     0.500000000000     0          
O        O      0.377600000000     0.877600000000     0.545900000000     0          
O        O      0.375000000000     0.807900000000     0.557900000000     0          
O        O      0.436450000000     0.842550000000     0.563550000000     0          
T        Si     0.399000000000     0.840150000000     0.541850000000     0          
O        O      0.167400000000     0.907200000000     0.500000000000     0          
O        O      0.122400000000     0.877600000000     0.545900000000     0          
O        O      0.192100000000     0.875000000000     0.557900000000     0          
O        O      0.157450000000     0.936450000000     0.563550000000     0          
T        Si     0.159850000000     0.899000000000     0.541850000000     0          
O        O      0.332600000000     0.592800000000     0.500000000000     0          
O        O      0.377600000000     0.622400000000     0.545900000000     0          
O        O      0.307900000000     0.625000000000     0.557900000000     0          
O        O      0.342550000000     0.563550000000     0.563550000000     0          
T        Si     0.340150000000     0.601000000000     0.541850000000     0          
O        O      0.442100000000     0.875000000000     0.807900000000     0          
T        Si     0.458150000000     0.899000000000     0.840150000000     0          
O        O      0.125000000000     0.942100000000     0.807900000000     0          
T        Si     0.101000000000     0.958150000000     0.840150000000     0          
O        O      0.057900000000     0.625000000000     0.807900000000     0          
T        Si     0.041850000000     0.601000000000     0.840150000000     0          
O        O      0.375000000000     0.557900000000     0.807900000000     0          
T        Si     0.399000000000     0.541850000000     0.840150000000     0          
O        O      0.442100000000     0.625000000000     0.692100000000     0          
T        Si     0.458150000000     0.601000000000     0.659850000000     0          
O        O      0.375000000000     0.942100000000     0.692100000000     0          
T        Si     0.399000000000     0.958150000000     0.659850000000     0          
O        O      0.057900000000     0.875000000000     0.692100000000     0          
T        Si     0.041850000000     0.899000000000     0.659850000000     0          
O        O      0.125000000000     0.557900000000     0.692100000000     0          
T        Si     0.101000000000     0.541850000000     0.659850000000     0          
O        O      0.307900000000     0.942100000000     0.875000000000     0          
T        Si     0.340150000000     0.958150000000     0.899000000000     0          
O        O      0.057900000000     0.807900000000     0.875000000000     0          
T        Si     0.041850000000     0.840150000000     0.899000000000     0          
O        O      0.192100000000     0.557900000000     0.875000000000     0          
T        Si     0.159850000000     0.541850000000     0.899000000000     0          
O        O      0.442100000000     0.692100000000     0.875000000000     0          
T        Si     0.458150000000     0.659850000000     0.899000000000     0          
O        O      0.307900000000     0.557900000000     0.625000000000     0          
T        Si     0.340150000000     0.541850000000     0.601000000000     0          
O        O      0.442100000000     0.807900000000     0.625000000000     0          
T        Si     0.458150000000     0.840150000000     0.601000000000     0          
O        O      0.192100000000     0.942100000000     0.625000000000     0          
T        Si     0.159850000000     0.958150000000     0.601000000000     0          
O        O      0.057900000000     0.692100000000     0.625000000000     0          
T        Si     0.041850000000     0.659850000000     0.601000000000     0          
O        O      0.375000000000     0.807900000000     0.942100000000     0          
T        Si     0.399000000000     0.840150000000     0.958150000000     0          
O        O      0.375000000000     0.692100000000     0.557900000000     0          
T        Si     0.399000000000     0.659850000000     0.541850000000     0          
O        O      0.307900000000     0.875000000000     0.557900000000     0          
T        Si     0.340150000000     0.899000000000     0.541850000000     0          
O        O      0.125000000000     0.807900000000     0.557900000000     0          
T        Si     0.101000000000     0.840150000000     0.541850000000     0          
O        O      0.192100000000     0.625000000000     0.557900000000     0          
T        Si     0.159850000000     0.601000000000     0.541850000000     0          
O        O      0.125000000000     0.692100000000     0.942100000000     0          
T        Si     0.101000000000     0.659850000000     0.958150000000     0          
O        O      0.307900000000     0.625000000000     0.942100000000     0          
T        Si     0.340150000000     0.601000000000     0.958150000000     0          
O        O      0.192100000000     0.875000000000     0.942100000000     0          
T        Si     0.159850000000     0.899000000000     0.958150000000     0          
O        O      0.250000000000     0.842800000000     0.917400000000     0          
O        O      0.295900000000     0.872400000000     0.872400000000     0          
O        O      0.313550000000     0.813550000000     0.907450000000     0          
T        Si     0.291850000000     0.851000000000     0.909850000000     0          
O        O      0.157200000000     0.750000000000     0.917400000000     0          
O        O      0.127600000000     0.795900000000     0.872400000000     0          
O        O      0.186450000000     0.813550000000     0.907450000000     0          
T        Si     0.149000000000     0.791850000000     0.909850000000     0          
O        O      0.250000000000     0.657200000000     0.917400000000     0          
O        O      0.204100000000     0.627600000000     0.872400000000     0          
O        O      0.186450000000     0.686450000000     0.907450000000     0          
T        Si     0.208150000000     0.649000000000     0.909850000000     0          
O        O      0.342800000000     0.750000000000     0.917400000000     0          
O        O      0.372400000000     0.704100000000     0.872400000000     0          
O        O      0.313550000000     0.686450000000     0.907450000000     0          
T        Si     0.351000000000     0.708150000000     0.909850000000     0          
O        O      0.250000000000     0.657200000000     0.582600000000     0          
O        O      0.295900000000     0.627600000000     0.627600000000     0          
O        O      0.313550000000     0.686450000000     0.592550000000     0          
T        Si     0.291850000000     0.649000000000     0.590150000000     0          
O        O      0.342800000000     0.750000000000     0.582600000000     0          
O        O      0.372400000000     0.795900000000     0.627600000000     0          
O        O      0.313550000000     0.813550000000     0.592550000000     0          
T        Si     0.351000000000     0.791850000000     0.590150000000     0          
O        O      0.250000000000     0.842800000000     0.582600000000     0          
O        O      0.204100000000     0.872400000000     0.627600000000     0          
O        O      0.186450000000     0.813550000000     0.592550000000     0          
T        Si     0.208150000000     0.851000000000     0.590150000000     0          
O        O      0.157200000000     0.750000000000     0.582600000000     0          
O        O      0.127600000000     0.704100000000     0.627600000000     0          
O        O      0.186450000000     0.686450000000     0.592550000000     0          
T        Si     0.149000000000     0.708150000000     0.590150000000     0          
O        O      0.417400000000     0.750000000000     0.842800000000     0          
O        O      0.372400000000     0.795900000000     0.872400000000     0          
O        O      0.407450000000     0.813550000000     0.813550000000     0          
T        Si     0.409850000000     0.791850000000     0.851000000000     0          
O        O      0.250000000000     0.917400000000     0.842800000000     0          
O        O      0.204100000000     0.872400000000     0.872400000000     0          
O        O      0.186450000000     0.907450000000     0.813550000000     0          
T        Si     0.208150000000     0.909850000000     0.851000000000     0          
O        O      0.082600000000     0.750000000000     0.842800000000     0          
O        O      0.127600000000     0.704100000000     0.872400000000     0          
O        O      0.092550000000     0.686450000000     0.813550000000     0          
T        Si     0.090150000000     0.708150000000     0.851000000000     0          
O        O      0.250000000000     0.582600000000     0.842800000000     0          
O        O      0.295900000000     0.627600000000     0.872400000000     0          
O        O      0.313550000000     0.592550000000     0.813550000000     0          
T        Si     0.291850000000     0.590150000000     0.851000000000     0          
O        O      0.417400000000     0.750000000000     0.657200000000     0          
O        O      0.372400000000     0.704100000000     0.627600000000     0          
O        O      0.407450000000     0.686450000000     0.686450000000     0          
T        Si     0.409850000000     0.708150000000     0.649000000000     0          
O        O      0.250000000000     0.917400000000     0.657200000000     0          
O        O      0.295900000000     0.872400000000     0.627600000000     0          
O        O      0.313550000000     0.907450000000     0.686450000000     0          
T        Si     0.291850000000     0.909850000000     0.649000000000     0          
O        O      0.082600000000     0.750000000000     0.657200000000     0          
O        O      0.127600000000     0.795900000000     0.627600000000     0          
O        O      0.092550000000     0.813550000000     0.686450000000     0          
T        Si     0.090150000000     0.791850000000     0.649000000000     0          
O        O      0.250000000000     0.582600000000     0.657200000000     0          
O        O      0.204100000000     0.627600000000     0.627600000000     0          
O        O      0.186450000000     0.592550000000     0.686450000000     0          
T        Si     0.208150000000     0.590150000000     0.649000000000     0          
O        O      0.342800000000     0.917400000000     0.750000000000     0          
O        O      0.372400000000     0.872400000000     0.795900000000     0          
O        O      0.313550000000     0.907450000000     0.813550000000     0          
T        Si     0.351000000000     0.909850000000     0.791850000000     0          
O        O      0.342800000000     0.582600000000     0.750000000000     0          
O        O      0.372400000000     0.627600000000     0.704100000000     0          
O        O      0.313550000000     0.592550000000     0.686450000000     0          
T        Si     0.351000000000     0.590150000000     0.708150000000     0          
O        O      0.417400000000     0.842800000000     0.750000000000     0          
O        O      0.372400000000     0.872400000000     0.704100000000     0          
O        O      0.407450000000     0.813550000000     0.686450000000     0          
T        Si     0.409850000000     0.851000000000     0.708150000000     0          
O        O      0.157200000000     0.917400000000     0.750000000000     0          
O        O      0.127600000000     0.872400000000     0.704100000000     0          
O        O      0.186450000000     0.907450000000     0.686450000000     0          
T        Si     0.149000000000     0.909850000000     0.708150000000     0          
O        O      0.082600000000     0.657200000000     0.750000000000     0          
O        O      0.127600000000     0.627600000000     0.704100000000     0          
O        O      0.092550000000     0.686450000000     0.686450000000     0          
T        Si     0.090150000000     0.649000000000     0.708150000000     0          
O        O      0.157200000000     0.582600000000     0.750000000000     0          
O        O      0.127600000000     0.627600000000     0.795900000000     0          
O        O      0.186450000000     0.592550000000     0.813550000000     0          
T        Si     0.149000000000     0.590150000000     0.791850000000     0          
O        O      0.417400000000     0.657200000000     0.750000000000     0          
O        O      0.372400000000     0.627600000000     0.795900000000     0          
O        O      0.407450000000     0.686450000000     0.813550000000     0          
T        Si     0.409850000000     0.649000000000     0.791850000000     0          
O        O      0.082600000000     0.842800000000     0.750000000000     0          
O        O      0.127600000000     0.872400000000     0.795900000000     0          
O        O      0.092550000000     0.813550000000     0.813550000000     0          
T        Si     0.090150000000     0.851000000000     0.791850000000     0          
T        Si     0.208150000000     0.649000000000     0.590150000000     0          
T        Si     0.351000000000     0.708150000000     0.590150000000     0          
T        Si     0.291850000000     0.851000000000     0.590150000000     0          
T        Si     0.149000000000     0.791850000000     0.590150000000     0          
T        Si     0.208150000000     0.851000000000     0.909850000000     0          
T        Si     0.149000000000     0.708150000000     0.909850000000     0          
T        Si     0.291850000000     0.649000000000     0.909850000000     0          
T        Si     0.351000000000     0.791850000000     0.909850000000     0          
T        Si     0.090150000000     0.708150000000     0.649000000000     0          
T        Si     0.291850000000     0.590150000000     0.649000000000     0          
T        Si     0.409850000000     0.791850000000     0.649000000000     0          
T        Si     0.208150000000     0.909850000000     0.649000000000     0          
T        Si     0.090150000000     0.791850000000     0.851000000000     0          
T        Si     0.208150000000     0.590150000000     0.851000000000     0          
T        Si     0.409850000000     0.708150000000     0.851000000000     0          
T        Si     0.291850000000     0.909850000000     0.851000000000     0          
T        Si     0.149000000000     0.590150000000     0.708150000000     0          
T        Si     0.149000000000     0.909850000000     0.791850000000     0          
T        Si     0.090150000000     0.649000000000     0.791850000000     0          
T        Si     0.351000000000     0.590150000000     0.791850000000     0          
T        Si     0.409850000000     0.851000000000     0.791850000000     0          
T        Si     0.351000000000     0.909850000000     0.708150000000     0          
T        Si     0.090150000000     0.851000000000     0.708150000000     0          
T        Si     0.409850000000     0.649000000000     0.708150000000     0          
O        O      0.500000000000     0.092800000000     0.167400000000     0          
O        O      0.545900000000     0.122400000000     0.122400000000     0          
O        O      0.557900000000     0.125000000000     0.192100000000     0          
O        O      0.563550000000     0.063550000000     0.157450000000     0          
T        Si     0.541850000000     0.101000000000     0.159850000000     0          
O        O      0.907200000000     0.000000000000     0.167400000000     0          
O        O      0.877600000000     0.045900000000     0.122400000000     0          
O        O      0.875000000000     0.057900000000     0.192100000000     0          
O        O      0.936450000000     0.063550000000     0.157450000000     0          
T        Si     0.899000000000     0.041850000000     0.159850000000     0          
O        O      0.500000000000     0.407200000000     0.167400000000     0          
O        O      0.954100000000     0.377600000000     0.122400000000     0          
O        O      0.942100000000     0.375000000000     0.192100000000     0          
O        O      0.936450000000     0.436450000000     0.157450000000     0          
T        Si     0.958150000000     0.399000000000     0.159850000000     0          
O        O      0.592800000000     0.000000000000     0.167400000000     0          
O        O      0.622400000000     0.454100000000     0.122400000000     0          
O        O      0.625000000000     0.442100000000     0.192100000000     0          
O        O      0.563550000000     0.436450000000     0.157450000000     0          
T        Si     0.601000000000     0.458150000000     0.159850000000     0          
O        O      0.500000000000     0.407200000000     0.332600000000     0          
O        O      0.545900000000     0.377600000000     0.377600000000     0          
O        O      0.557900000000     0.375000000000     0.307900000000     0          
O        O      0.563550000000     0.436450000000     0.342550000000     0          
T        Si     0.541850000000     0.399000000000     0.340150000000     0          
O        O      0.592800000000     0.000000000000     0.332600000000     0          
O        O      0.622400000000     0.045900000000     0.377600000000     0          
O        O      0.625000000000     0.057900000000     0.307900000000     0          
O        O      0.563550000000     0.063550000000     0.342550000000     0          
T        Si     0.601000000000     0.041850000000     0.340150000000     0          
O        O      0.500000000000     0.092800000000     0.332600000000     0          
O        O      0.954100000000     0.122400000000     0.377600000000     0          
O        O      0.942100000000     0.125000000000     0.307900000000     0          
O        O      0.936450000000     0.063550000000     0.342550000000     0          
T        Si     0.958150000000     0.101000000000     0.340150000000     0          
O        O      0.907200000000     0.000000000000     0.332600000000     0          
O        O      0.877600000000     0.454100000000     0.377600000000     0          
O        O      0.875000000000     0.442100000000     0.307900000000     0          
O        O      0.936450000000     0.436450000000     0.342550000000     0          
T        Si     0.899000000000     0.458150000000     0.340150000000     0          
O        O      0.667400000000     0.000000000000     0.092800000000     0          
O        O      0.622400000000     0.045900000000     0.122400000000     0          
O        O      0.692100000000     0.057900000000     0.125000000000     0          
O        O      0.657450000000     0.063550000000     0.063550000000     0          
T        Si     0.659850000000     0.041850000000     0.101000000000     0          
O        O      0.500000000000     0.167400000000     0.092800000000     0          
O        O      0.954100000000     0.122400000000     0.122400000000     0          
O        O      0.942100000000     0.192100000000     0.125000000000     0          
O        O      0.936450000000     0.157450000000     0.063550000000     0          
T        Si     0.958150000000     0.159850000000     0.101000000000     0          
O        O      0.832600000000     0.000000000000     0.092800000000     0          
O        O      0.877600000000     0.454100000000     0.122400000000     0          
O        O      0.807900000000     0.442100000000     0.125000000000     0          
O        O      0.842550000000     0.436450000000     0.063550000000     0          
T        Si     0.840150000000     0.458150000000     0.101000000000     0          
O        O      0.500000000000     0.332600000000     0.092800000000     0          
O        O      0.545900000000     0.377600000000     0.122400000000     0          
O        O      0.557900000000     0.307900000000     0.125000000000     0          
O        O      0.563550000000     0.342550000000     0.063550000000     0          
T        Si     0.541850000000     0.340150000000     0.101000000000     0          
O        O      0.667400000000     0.000000000000     0.407200000000     0          
O        O      0.622400000000     0.454100000000     0.377600000000     0          
O        O      0.692100000000     0.442100000000     0.375000000000     0          
O        O      0.657450000000     0.436450000000     0.436450000000     0          
T        Si     0.659850000000     0.458150000000     0.399000000000     0          
O        O      0.500000000000     0.167400000000     0.407200000000     0          
O        O      0.545900000000     0.122400000000     0.377600000000     0          
O        O      0.557900000000     0.192100000000     0.375000000000     0          
O        O      0.563550000000     0.157450000000     0.436450000000     0          
T        Si     0.541850000000     0.159850000000     0.399000000000     0          
O        O      0.832600000000     0.000000000000     0.407200000000     0          
O        O      0.877600000000     0.045900000000     0.377600000000     0          
O        O      0.807900000000     0.057900000000     0.375000000000     0          
O        O      0.842550000000     0.063550000000     0.436450000000     0          
T        Si     0.840150000000     0.041850000000     0.399000000000     0          
O        O      0.500000000000     0.332600000000     0.407200000000     0          
O        O      0.954100000000     0.377600000000     0.377600000000     0          
O        O      0.942100000000     0.307900000000     0.375000000000     0          
O        O      0.936450000000     0.342550000000     0.436450000000     0          
T        Si     0.958150000000     0.340150000000     0.399000000000     0          
O        O      0.592800000000     0.167400000000     0.000000000000     0          
O        O      0.622400000000     0.122400000000     0.045900000000     0          
O        O      0.625000000000     0.192100000000     0.057900000000     0          
O        O      0.563550000000     0.157450000000     0.063550000000     0          
T        Si     0.601000000000     0.159850000000     0.041850000000     0          
O        O      0.592800000000     0.332600000000     0.000000000000     0          
O        O      0.622400000000     0.377600000000     0.454100000000     0          
O        O      0.625000000000     0.307900000000     0.442100000000     0          
O        O      0.563550000000     0.342550000000     0.436450000000     0          
T        Si     0.601000000000     0.340150000000     0.458150000000     0          
O        O      0.667400000000     0.092800000000     0.000000000000     0          
O        O      0.622400000000     0.122400000000     0.454100000000     0          
O        O      0.692100000000     0.125000000000     0.442100000000     0          
O        O      0.657450000000     0.063550000000     0.436450000000     0          
T        Si     0.659850000000     0.101000000000     0.458150000000     0          
O        O      0.907200000000     0.167400000000     0.000000000000     0          
O        O      0.877600000000     0.122400000000     0.454100000000     0          
O        O      0.875000000000     0.192100000000     0.442100000000     0          
O        O      0.936450000000     0.157450000000     0.436450000000     0          
T        Si     0.899000000000     0.159850000000     0.458150000000     0          
O        O      0.832600000000     0.407200000000     0.000000000000     0          
O        O      0.877600000000     0.377600000000     0.454100000000     0          
O        O      0.807900000000     0.375000000000     0.442100000000     0          
O        O      0.842550000000     0.436450000000     0.436450000000     0          
T        Si     0.840150000000     0.399000000000     0.458150000000     0          
O        O      0.907200000000     0.332600000000     0.000000000000     0          
O        O      0.877600000000     0.377600000000     0.045900000000     0          
O        O      0.875000000000     0.307900000000     0.057900000000     0          
O        O      0.936450000000     0.342550000000     0.063550000000     0          
T        Si     0.899000000000     0.340150000000     0.041850000000     0          
O        O      0.667400000000     0.407200000000     0.000000000000     0          
O        O      0.622400000000     0.377600000000     0.045900000000     0          
O        O      0.692100000000     0.375000000000     0.057900000000     0          
O        O      0.657450000000     0.436450000000     0.063550000000     0          
T        Si     0.659850000000     0.399000000000     0.041850000000     0          
O        O      0.832600000000     0.092800000000     0.000000000000     0          
O        O      0.877600000000     0.122400000000     0.045900000000     0          
O        O      0.807900000000     0.125000000000     0.057900000000     0          
O        O      0.842550000000     0.063550000000     0.063550000000     0          
T        Si     0.840150000000     0.101000000000     0.041850000000     0          
O        O      0.942100000000     0.375000000000     0.307900000000     0          
T        Si     0.958150000000     0.399000000000     0.340150000000     0          
O        O      0.625000000000     0.442100000000     0.307900000000     0          
T        Si     0.601000000000     0.458150000000     0.340150000000     0          
O        O      0.557900000000     0.125000000000     0.307900000000     0          
T        Si     0.541850000000     0.101000000000     0.340150000000     0          
O        O      0.875000000000     0.057900000000     0.307900000000     0          
T        Si     0.899000000000     0.041850000000     0.340150000000     0          
O        O      0.942100000000     0.125000000000     0.192100000000     0          
T        Si     0.958150000000     0.101000000000     0.159850000000     0          
O        O      0.875000000000     0.442100000000     0.192100000000     0          
T        Si     0.899000000000     0.458150000000     0.159850000000     0          
O        O      0.557900000000     0.375000000000     0.192100000000     0          
T        Si     0.541850000000     0.399000000000     0.159850000000     0          
O        O      0.625000000000     0.057900000000     0.192100000000     0          
T        Si     0.601000000000     0.041850000000     0.159850000000     0          
O        O      0.807900000000     0.442100000000     0.375000000000     0          
T        Si     0.840150000000     0.458150000000     0.399000000000     0          
O        O      0.557900000000     0.307900000000     0.375000000000     0          
T        Si     0.541850000000     0.340150000000     0.399000000000     0          
O        O      0.692100000000     0.057900000000     0.375000000000     0          
T        Si     0.659850000000     0.041850000000     0.399000000000     0          
O        O      0.942100000000     0.192100000000     0.375000000000     0          
T        Si     0.958150000000     0.159850000000     0.399000000000     0          
O        O      0.807900000000     0.057900000000     0.125000000000     0          
T        Si     0.840150000000     0.041850000000     0.101000000000     0          
O        O      0.942100000000     0.307900000000     0.125000000000     0          
T        Si     0.958150000000     0.340150000000     0.101000000000     0          
O        O      0.692100000000     0.442100000000     0.125000000000     0          
T        Si     0.659850000000     0.458150000000     0.101000000000     0          
O        O      0.557900000000     0.192100000000     0.125000000000     0          
T        Si     0.541850000000     0.159850000000     0.101000000000     0          
O        O      0.875000000000     0.307900000000     0.442100000000     0          
T        Si     0.899000000000     0.340150000000     0.458150000000     0          
O        O      0.875000000000     0.192100000000     0.057900000000     0          
T        Si     0.899000000000     0.159850000000     0.041850000000     0          
O        O      0.807900000000     0.375000000000     0.057900000000     0          
T        Si     0.840150000000     0.399000000000     0.041850000000     0          
O        O      0.625000000000     0.307900000000     0.057900000000     0          
T        Si     0.601000000000     0.340150000000     0.041850000000     0          
O        O      0.692100000000     0.125000000000     0.057900000000     0          
T        Si     0.659850000000     0.101000000000     0.041850000000     0          
O        O      0.625000000000     0.192100000000     0.442100000000     0          
T        Si     0.601000000000     0.159850000000     0.458150000000     0          
O        O      0.807900000000     0.125000000000     0.442100000000     0          
T        Si     0.840150000000     0.101000000000     0.458150000000     0          
O        O      0.692100000000     0.375000000000     0.442100000000     0          
T        Si     0.659850000000     0.399000000000     0.458150000000     0          
O        O      0.750000000000     0.342800000000     0.417400000000     0          
O        O      0.795900000000     0.372400000000     0.372400000000     0          
O        O      0.813550000000     0.313550000000     0.407450000000     0          
T        Si     0.791850000000     0.351000000000     0.409850000000     0          
O        O      0.657200000000     0.250000000000     0.417400000000     0          
O        O      0.627600000000     0.295900000000     0.372400000000     0          
O        O      0.686450000000     0.313550000000     0.407450000000     0          
T        Si     0.649000000000     0.291850000000     0.409850000000     0          
O        O      0.750000000000     0.157200000000     0.417400000000     0          
O        O      0.704100000000     0.127600000000     0.372400000000     0          
O        O      0.686450000000     0.186450000000     0.407450000000     0          
T        Si     0.708150000000     0.149000000000     0.409850000000     0          
O        O      0.842800000000     0.250000000000     0.417400000000     0          
O        O      0.872400000000     0.204100000000     0.372400000000     0          
O        O      0.813550000000     0.186450000000     0.407450000000     0          
T        Si     0.851000000000     0.208150000000     0.409850000000     0          
O        O      0.750000000000     0.157200000000     0.082600000000     0          
O        O      0.795900000000     0.127600000000     0.127600000000     0          
O        O      0.813550000000     0.186450000000     0.092550000000     0          
T        Si     0.791850000000     0.149000000000     0.090150000000     0          
O        O      0.842800000000     0.250000000000     0.082600000000     0          
O        O      0.872400000000     0.295900000000     0.127600000000     0          
O        O      0.813550000000     0.313550000000     0.092550000000     0          
T        Si     0.851000000000     0.291850000000     0.090150000000     0          
O        O      0.750000000000     0.342800000000     0.082600000000     0          
O        O      0.704100000000     0.372400000000     0.127600000000     0          
O        O      0.686450000000     0.313550000000     0.092550000000     0          
T        Si     0.708150000000     0.351000000000     0.090150000000     0          
O        O      0.657200000000     0.250000000000     0.082600000000     0          
O        O      0.627600000000     0.204100000000     0.127600000000     0          
O        O      0.686450000000     0.186450000000     0.092550000000     0          
T        Si     0.649000000000     0.208150000000     0.090150000000     0          
O        O      0.917400000000     0.250000000000     0.342800000000     0          
O        O      0.872400000000     0.295900000000     0.372400000000     0          
O        O      0.907450000000     0.313550000000     0.313550000000     0          
T        Si     0.909850000000     0.291850000000     0.351000000000     0          
O        O      0.750000000000     0.417400000000     0.342800000000     0          
O        O      0.704100000000     0.372400000000     0.372400000000     0          
O        O      0.686450000000     0.407450000000     0.313550000000     0          
T        Si     0.708150000000     0.409850000000     0.351000000000     0          
O        O      0.582600000000     0.250000000000     0.342800000000     0          
O        O      0.627600000000     0.204100000000     0.372400000000     0          
O        O      0.592550000000     0.186450000000     0.313550000000     0          
T        Si     0.590150000000     0.208150000000     0.351000000000     0          
O        O      0.750000000000     0.082600000000     0.342800000000     0          
O        O      0.795900000000     0.127600000000     0.372400000000     0          
O        O      0.813550000000     0.092550000000     0.313550000000     0          
T        Si     0.791850000000     0.090150000000     0.351000000000     0          
O        O      0.917400000000     0.250000000000     0.157200000000     0          
O        O      0.872400000000     0.204100000000     0.127600000000     0          
O        O      0.907450000000     0.186450000000     0.186450000000     0          
T        Si     0.909850000000     0.208150000000     0.149000000000     0          
O        O      0.750000000000     0.417400000000     0.157200000000     0          
O        O      0.795900000000     0.372400000000     0.127600000000     0          
O        O      0.813550000000     0.407450000000     0.186450000000     0          
T        Si     0.791850000000     0.409850000000     0.149000000000     0          
O        O      0.582600000000     0.250000000000     0.157200000000     0          
O        O      0.627600000000     0.295900000000     0.127600000000     0          
O        O      0.592550000000     0.313550000000     0.186450000000     0          
T        Si     0.590150000000     0.291850000000     0.149000000000     0          
O        O      0.750000000000     0.082600000000     0.157200000000     0          
O        O      0.704100000000     0.127600000000     0.127600000000     0          
O        O      0.686450000000     0.092550000000     0.186450000000     0          
T        Si     0.708150000000     0.090150000000     0.149000000000     0          
O        O      0.842800000000     0.417400000000     0.250000000000     0          
O        O      0.872400000000     0.372400000000     0.295900000000     0          
O        O      0.813550000000     0.407450000000     0.313550000000     0          
T        Si     0.851000000000     0.409850000000     0.291850000000     0          
O        O      0.842800000000     0.082600000000     0.250000000000     0          
O        O      0.872400000000     0.127600000000     0.204100000000     0          
O        O      0.813550000000     0.092550000000     0.186450000000     0          
T        Si     0.851000000000     0.090150000000     0.208150000000     0          
O        O      0.917400000000     0.342800000000     0.250000000000     0          
O        O      0.872400000000     0.372400000000     0.204100000000     0          
O        O      0.907450000000     0.313550000000     0.186450000000     0          
T        Si     0.909850000000     0.351000000000     0.208150000000     0          
O        O      0.657200000000     0.417400000000     0.250000000000     0          
O        O      0.627600000000     0.372400000000     0.204100000000     0          
O        O      0.686450000000     0.407450000000     0.186450000000     0          
T        Si     0.649000000000     0.409850000000     0.208150000000     0          
O        O      0.582600000000     0.157200000000     0.250000000000     0          
O        O      0.627600000000     0.127600000000     0.204100000000     0          
O        O      0.592550000000     0.186450000000     0.186450000000     0          
T        Si     0.590150000000     0.149000000000     0.208150000000     0          
O        O      0.657200000000     0.082600000000     0.250000000000     0          
O        O      0.627600000000     0.127600000000     0.295900000000     0          
O        O      0.686450000000     0.092550000000     0.313550000000     0          
T        Si     0.649000000000     0.090150000000     0.291850000000     0          
O        O      0.917400000000     0.157200000000     0.250000000000     0          
O        O      0.872400000000     0.127600000000     0.295900000000     0          
O        O      0.907450000000     0.186450000000     0.313550000000     0          
T        Si     0.909850000000     0.149000000000     0.291850000000     0          
O        O      0.582600000000     0.342800000000     0.250000000000     0          
O        O      0.627600000000     0.372400000000     0.295900000000     0          
O        O      0.592550000000     0.313550000000     0.313550000000     0          
T        Si     0.590150000000     0.351000000000     0.291850000000     0          
T        Si     0.708150000000     0.149000000000     0.090150000000     0          
T        Si     0.851000000000     0.208150000000     0.090150000000     0          
T        Si     0.791850000000     0.351000000000     0.090150000000     0          
T        Si     0.649000000000     0.291850000000     0.090150000000     0          
T        Si     0.708150000000     0.351000000000     0.409850000000     0          
T        Si     0.649000000000     0.208150000000     0.409850000000     0          
T        Si     0.791850000000     0.149000000000     0.409850000000     0          
T        Si     0.851000000000     0.291850000000     0.409850000000     0          
T        Si     0.590150000000     0.208150000000     0.149000000000     0          
T        Si     0.791850000000     0.090150000000     0.149000000000     0          
T        Si     0.909850000000     0.291850000000     0.149000000000     0          
T        Si     0.708150000000     0.409850000000     0.149000000000     0          
T        Si     0.590150000000     0.291850000000     0.351000000000     0          
T        Si     0.708150000000     0.090150000000     0.351000000000     0          
T        Si     0.909850000000     0.208150000000     0.351000000000     0          
T        Si     0.791850000000     0.409850000000     0.351000000000     0          
T        Si     0.649000000000     0.090150000000     0.208150000000     0          
T        Si     0.649000000000     0.409850000000     0.291850000000     0          
T        Si     0.590150000000     0.149000000000     0.291850000000     0          
T        Si     0.851000000000     0.090150000000     0.291850000000     0          
T        Si     0.909850000000     0.351000000000     0.291850000000     0          
T        Si     0.851000000000     0.409850000000     0.208150000000     0          
T        Si     0.590150000000     0.351000000000     0.208150000000     0          
T        Si     0.909850000000     0.149000000000     0.208150000000     0          
O        O      0.500000000000     0.092800000000     0.667400000000     0          
O        O      0.545900000000     0.122400000000     0.622400000000     0          
O        O      0.557900000000     0.125000000000     0.692100000000     0          
O        O      0.563550000000     0.063550000000     0.657450000000     0          
T        Si     0.541850000000     0.101000000000     0.659850000000     0          
O        O      0.907200000000     0.000000000000     0.667400000000     0          
O        O      0.877600000000     0.045900000000     0.622400000000     0          
O        O      0.875000000000     0.057900000000     0.692100000000     0          
O        O      0.936450000000     0.063550000000     0.657450000000     0          
T        Si     0.899000000000     0.041850000000     0.659850000000     0          
O        O      0.500000000000     0.407200000000     0.667400000000     0          
O        O      0.954100000000     0.377600000000     0.622400000000     0          
O        O      0.942100000000     0.375000000000     0.692100000000     0          
O        O      0.936450000000     0.436450000000     0.657450000000     0          
T        Si     0.958150000000     0.399000000000     0.659850000000     0          
O        O      0.592800000000     0.000000000000     0.667400000000     0          
O        O      0.622400000000     0.454100000000     0.622400000000     0          
O        O      0.625000000000     0.442100000000     0.692100000000     0          
O        O      0.563550000000     0.436450000000     0.657450000000     0          
T        Si     0.601000000000     0.458150000000     0.659850000000     0          
O        O      0.500000000000     0.407200000000     0.832600000000     0          
O        O      0.545900000000     0.377600000000     0.877600000000     0          
O        O      0.557900000000     0.375000000000     0.807900000000     0          
O        O      0.563550000000     0.436450000000     0.842550000000     0          
T        Si     0.541850000000     0.399000000000     0.840150000000     0          
O        O      0.592800000000     0.000000000000     0.832600000000     0          
O        O      0.622400000000     0.045900000000     0.877600000000     0          
O        O      0.625000000000     0.057900000000     0.807900000000     0          
O        O      0.563550000000     0.063550000000     0.842550000000     0          
T        Si     0.601000000000     0.041850000000     0.840150000000     0          
O        O      0.500000000000     0.092800000000     0.832600000000     0          
O        O      0.954100000000     0.122400000000     0.877600000000     0          
O        O      0.942100000000     0.125000000000     0.807900000000     0          
O        O      0.936450000000     0.063550000000     0.842550000000     0          
T        Si     0.958150000000     0.101000000000     0.840150000000     0          
O        O      0.907200000000     0.000000000000     0.832600000000     0          
O        O      0.877600000000     0.454100000000     0.877600000000     0          
O        O      0.875000000000     0.442100000000     0.807900000000     0          
O        O      0.936450000000     0.436450000000     0.842550000000     0          
T        Si     0.899000000000     0.458150000000     0.840150000000     0          
O        O      0.667400000000     0.000000000000     0.592800000000     0          
O        O      0.622400000000     0.045900000000     0.622400000000     0          
O        O      0.692100000000     0.057900000000     0.625000000000     0          
O        O      0.657450000000     0.063550000000     0.563550000000     0          
T        Si     0.659850000000     0.041850000000     0.601000000000     0          
O        O      0.500000000000     0.167400000000     0.592800000000     0          
O        O      0.954100000000     0.122400000000     0.622400000000     0          
O        O      0.942100000000     0.192100000000     0.625000000000     0          
O        O      0.936450000000     0.157450000000     0.563550000000     0          
T        Si     0.958150000000     0.159850000000     0.601000000000     0          
O        O      0.832600000000     0.000000000000     0.592800000000     0          
O        O      0.877600000000     0.454100000000     0.622400000000     0          
O        O      0.807900000000     0.442100000000     0.625000000000     0          
O        O      0.842550000000     0.436450000000     0.563550000000     0          
T        Si     0.840150000000     0.458150000000     0.601000000000     0          
O        O      0.500000000000     0.332600000000     0.592800000000     0          
O        O      0.545900000000     0.377600000000     0.622400000000     0          
O        O      0.557900000000     0.307900000000     0.625000000000     0          
O        O      0.563550000000     0.342550000000     0.563550000000     0          
T        Si     0.541850000000     0.340150000000     0.601000000000     0          
O        O      0.667400000000     0.000000000000     0.907200000000     0          
O        O      0.622400000000     0.454100000000     0.877600000000     0          
O        O      0.692100000000     0.442100000000     0.875000000000     0          
O        O      0.657450000000     0.436450000000     0.936450000000     0          
T        Si     0.659850000000     0.458150000000     0.899000000000     0          
O        O      0.500000000000     0.167400000000     0.907200000000     0          
O        O      0.545900000000     0.122400000000     0.877600000000     0          
O        O      0.557900000000     0.192100000000     0.875000000000     0          
O        O      0.563550000000     0.157450000000     0.936450000000     0          
T        Si     0.541850000000     0.159850000000     0.899000000000     0          
O        O      0.832600000000     0.000000000000     0.907200000000     0          
O        O      0.877600000000     0.045900000000     0.877600000000     0          
O        O      0.807900000000     0.057900000000     0.875000000000     0          
O        O      0.842550000000     0.063550000000     0.936450000000     0          
T        Si     0.840150000000     0.041850000000     0.899000000000     0          
O        O      0.500000000000     0.332600000000     0.907200000000     0          
O        O      0.954100000000     0.377600000000     0.877600000000     0          
O        O      0.942100000000     0.307900000000     0.875000000000     0          
O        O      0.936450000000     0.342550000000     0.936450000000     0          
T        Si     0.958150000000     0.340150000000     0.899000000000     0          
O        O      0.592800000000     0.167400000000     0.500000000000     0          
O        O      0.622400000000     0.122400000000     0.545900000000     0          
O        O      0.625000000000     0.192100000000     0.557900000000     0          
O        O      0.563550000000     0.157450000000     0.563550000000     0          
T        Si     0.601000000000     0.159850000000     0.541850000000     0          
O        O      0.592800000000     0.332600000000     0.500000000000     0          
O        O      0.622400000000     0.377600000000     0.954100000000     0          
O        O      0.625000000000     0.307900000000     0.942100000000     0          
O        O      0.563550000000     0.342550000000     0.936450000000     0          
T        Si     0.601000000000     0.340150000000     0.958150000000     0          
O        O      0.667400000000     0.092800000000     0.500000000000     0          
O        O      0.622400000000     0.122400000000     0.954100000000     0          
O        O      0.692100000000     0.125000000000     0.942100000000     0          
O        O      0.657450000000     0.063550000000     0.936450000000     0          
T        Si     0.659850000000     0.101000000000     0.958150000000     0          
O        O      0.907200000000     0.167400000000     0.500000000000     0          
O        O      0.877600000000     0.122400000000     0.954100000000     0          
O        O      0.875000000000     0.192100000000     0.942100000000     0          
O        O      0.936450000000     0.157450000000     0.936450000000     0          
T        Si     0.899000000000     0.159850000000     0.958150000000     0          
O        O      0.832600000000     0.407200000000     0.500000000000     0          
O        O      0.877600000000     0.377600000000     0.954100000000     0          
O        O      0.807900000000     0.375000000000     0.942100000000     0          
O        O      0.842550000000     0.436450000000     0.936450000000     0          
T        Si     0.840150000000     0.399000000000     0.958150000000     0          
O        O      0.907200000000     0.332600000000     0.500000000000     0          
O        O      0.877600000000     0.377600000000     0.545900000000     0          
O        O      0.875000000000     0.307900000000     0.557900000000     0          
O        O      0.936450000000     0.342550000000     0.563550000000     0          
T        Si     0.899000000000     0.340150000000     0.541850000000     0          
O        O      0.667400000000     0.407200000000     0.500000000000     0          
O        O      0.622400000000     0.377600000000     0.545900000000     0          
O        O      0.692100000000     0.375000000000     0.557900000000     0          
O        O      0.657450000000     0.436450000000     0.563550000000     0          
T        Si     0.659850000000     0.399000000000     0.541850000000     0          
O        O      0.832600000000     0.092800000000     0.500000000000     0          
O        O      0.877600000000     0.122400000000     0.545900000000     0          
O        O      0.807900000000     0.125000000000     0.557900000000     0          
O        O      0.842550000000     0.063550000000     0.563550000000     0          
T        Si     0.840150000000     0.101000000000     0.541850000000     0          
O        O      0.942100000000     0.375000000000     0.807900000000     0          
T        Si     0.958150000000     0.399000000000     0.840150000000     0          
O        O      0.625000000000     0.442100000000     0.807900000000     0          
T        Si     0.601000000000     0.458150000000     0.840150000000     0          
O        O      0.557900000000     0.125000000000     0.807900000000     0          
T        Si     0.541850000000     0.101000000000     0.840150000000     0          
O        O      0.875000000000     0.057900000000     0.807900000000     0          
T        Si     0.899000000000     0.041850000000     0.840150000000     0          
O        O      0.942100000000     0.125000000000     0.692100000000     0          
T        Si     0.958150000000     0.101000000000     0.659850000000     0          
O        O      0.875000000000     0.442100000000     0.692100000000     0          
T        Si     0.899000000000     0.458150000000     0.659850000000     0          
O        O      0.557900000000     0.375000000000     0.692100000000     0          
T        Si     0.541850000000     0.399000000000     0.659850000000     0          
O        O      0.625000000000     0.057900000000     0.692100000000     0          
T        Si     0.601000000000     0.041850000000     0.659850000000     0          
O        O      0.807900000000     0.442100000000     0.875000000000     0          
T        Si     0.840150000000     0.458150000000     0.899000000000     0          
O        O      0.557900000000     0.307900000000     0.875000000000     0          
T        Si     0.541850000000     0.340150000000     0.899000000000     0          
O        O      0.692100000000     0.057900000000     0.875000000000     0          
T        Si     0.659850000000     0.041850000000     0.899000000000     0          
O        O      0.942100000000     0.192100000000     0.875000000000     0          
T        Si     0.958150000000     0.159850000000     0.899000000000     0          
O        O      0.807900000000     0.057900000000     0.625000000000     0          
T        Si     0.840150000000     0.041850000000     0.601000000000     0          
O        O      0.942100000000     0.307900000000     0.625000000000     0          
T        Si     0.958150000000     0.340150000000     0.601000000000     0          
O        O      0.692100000000     0.442100000000     0.625000000000     0          
T        Si     0.659850000000     0.458150000000     0.601000000000     0          
O        O      0.557900000000     0.192100000000     0.625000000000     0          
T        Si     0.541850000000     0.159850000000     0.601000000000     0          
O        O      0.875000000000     0.307900000000     0.942100000000     0          
T        Si     0.899000000000     0.340150000000     0.958150000000     0          
O        O      0.875000000000     0.192100000000     0.557900000000     0          
T        Si     0.899000000000     0.159850000000     0.541850000000     0          
O        O      0.807900000000     0.375000000000     0.557900000000     0          
T        Si     0.840150000000     0.399000000000     0.541850000000     0          
O        O      0.625000000000     0.307900000000     0.557900000000     0          
T        Si     0.601000000000     0.340150000000     0.541850000000     0          
O        O      0.692100000000     0.125000000000     0.557900000000     0          
T        Si     0.659850000000     0.101000000000     0.541850000000     0          
O        O      0.625000000000     0.192100000000     0.942100000000     0          
T        Si     0.601000000000     0.159850000000     0.958150000000     0          
O        O      0.807900000000     0.125000000000     0.942100000000     0          
T        Si     0.840150000000     0.101000000000     0.958150000000     0          
O        O      0.692100000000     0.375000000000     0.942100000000     0          
T        Si     0.659850000000     0.399000000000     0.958150000000     0          
O        O      0.750000000000     0.342800000000     0.917400000000     0          
O        O      0.795900000000     0.372400000000     0.872400000000     0          
O        O      0.813550000000     0.313550000000     0.907450000000     0          
T        Si     0.791850000000     0.351000000000     0.909850000000     0          
O        O      0.657200000000     0.250000000000     0.917400000000     0          
O        O      0.627600000000     0.295900000000     0.872400000000     0          
O        O      0.686450000000     0.313550000000     0.907450000000     0          
T        Si     0.649000000000     0.291850000000     0.909850000000     0          
O        O      0.750000000000     0.157200000000     0.917400000000     0          
O        O      0.704100000000     0.127600000000     0.872400000000     0          
O        O      0.686450000000     0.186450000000     0.907450000000     0          
T        Si     0.708150000000     0.149000000000     0.909850000000     0          
O        O      0.842800000000     0.250000000000     0.917400000000     0          
O        O      0.872400000000     0.204100000000     0.872400000000     0          
O        O      0.813550000000     0.186450000000     0.907450000000     0          
T        Si     0.851000000000     0.208150000000     0.909850000000     0          
O        O      0.750000000000     0.157200000000     0.582600000000     0          
O        O      0.795900000000     0.127600000000     0.627600000000     0          
O        O      0.813550000000     0.186450000000     0.592550000000     0          
T        Si     0.791850000000     0.149000000000     0.590150000000     0          
O        O      0.842800000000     0.250000000000     0.582600000000     0          
O        O      0.872400000000     0.295900000000     0.627600000000     0          
O        O      0.813550000000     0.313550000000     0.592550000000     0          
T        Si     0.851000000000     0.291850000000     0.590150000000     0          
O        O      0.750000000000     0.342800000000     0.582600000000     0          
O        O      0.704100000000     0.372400000000     0.627600000000     0          
O        O      0.686450000000     0.313550000000     0.592550000000     0          
T        Si     0.708150000000     0.351000000000     0.590150000000     0          
O        O      0.657200000000     0.250000000000     0.582600000000     0          
O        O      0.627600000000     0.204100000000     0.627600000000     0          
O        O      0.686450000000     0.186450000000     0.592550000000     0          
T        Si     0.649000000000     0.208150000000     0.590150000000     0          
O        O      0.917400000000     0.250000000000     0.842800000000     0          
O        O      0.872400000000     0.295900000000     0.872400000000     0          
O        O      0.907450000000     0.313550000000     0.813550000000     0          
T        Si     0.909850000000     0.291850000000     0.851000000000     0          
O        O      0.750000000000     0.417400000000     0.842800000000     0          
O        O      0.704100000000     0.372400000000     0.872400000000     0          
O        O      0.686450000000     0.407450000000     0.813550000000     0          
T        Si     0.708150000000     0.409850000000     0.851000000000     0          
O        O      0.582600000000     0.250000000000     0.842800000000     0          
O        O      0.627600000000     0.204100000000     0.872400000000     0          
O        O      0.592550000000     0.186450000000     0.813550000000     0          
T        Si     0.590150000000     0.208150000000     0.851000000000     0          
O        O      0.750000000000     0.082600000000     0.842800000000     0          
O        O      0.795900000000     0.127600000000     0.872400000000     0          
O        O      0.813550000000     0.092550000000     0.813550000000     0          
T        Si     0.791850000000     0.090150000000     0.851000000000     0          
O        O      0.917400000000     0.250000000000     0.657200000000     0          
O        O      0.872400000000     0.204100000000     0.627600000000     0          
O        O      0.907450000000     0.186450000000     0.686450000000     0          
T        Si     0.909850000000     0.208150000000     0.649000000000     0          
O        O      0.750000000000     0.417400000000     0.657200000000     0          
O        O      0.795900000000     0.372400000000     0.627600000000     0          
O        O      0.813550000000     0.407450000000     0.686450000000     0          
T        Si     0.791850000000     0.409850000000     0.649000000000     0          
O        O      0.582600000000     0.250000000000     0.657200000000     0          
O        O      0.627600000000     0.295900000000     0.627600000000     0          
O        O      0.592550000000     0.313550000000     0.686450000000     0          
T        Si     0.590150000000     0.291850000000     0.649000000000     0          
O        O      0.750000000000     0.082600000000     0.657200000000     0          
O        O      0.704100000000     0.127600000000     0.627600000000     0          
O        O      0.686450000000     0.092550000000     0.686450000000     0          
T        Si     0.708150000000     0.090150000000     0.649000000000     0          
O        O      0.842800000000     0.417400000000     0.750000000000     0          
O        O      0.872400000000     0.372400000000     0.795900000000     0          
O        O      0.813550000000     0.407450000000     0.813550000000     0          
T        Si     0.851000000000     0.409850000000     0.791850000000     0          
O        O      0.842800000000     0.082600000000     0.750000000000     0          
O        O      0.872400000000     0.127600000000     0.704100000000     0          
O        O      0.813550000000     0.092550000000     0.686450000000     0          
T        Si     0.851000000000     0.090150000000     0.708150000000     0          
O        O      0.917400000000     0.342800000000     0.750000000000     0          
O        O      0.872400000000     0.372400000000     0.704100000000     0          
O        O      0.907450000000     0.313550000000     0.686450000000     0          
T        Si     0.909850000000     0.351000000000     0.708150000000     0          
O        O      0.657200000000     0.417400000000     0.750000000000     0          
O        O      0.627600000000     0.372400000000     0.704100000000     0          
O        O      0.686450000000     0.407450000000     0.686450000000     0          
T        Si     0.649000000000     0.409850000000     0.708150000000     0          
O        O      0.582600000000     0.157200000000     0.750000000000     0          
O        O      0.627600000000     0.127600000000     0.704100000000     0          
O        O      0.592550000000     0.186450000000     0.686450000000     0          
T        Si     0.590150000000     0.149000000000     0.708150000000     0          
O        O      0.657200000000     0.082600000000     0.750000000000     0          
O        O      0.627600000000     0.127600000000     0.795900000000     0          
O        O      0.686450000000     0.092550000000     0.813550000000     0          
T        Si     0.649000000000     0.090150000000     0.791850000000     0          
O        O      0.917400000000     0.157200000000     0.750000000000     0          
O        O      0.872400000000     0.127600000000     0.795900000000     0          
O        O      0.907450000000     0.186450000000     0.813550000000     0          
T        Si     0.909850000000     0.149000000000     0.791850000000     0          
O        O      0.582600000000     0.342800000000     0.750000000000     0          
O        O      0.627600000000     0.372400000000     0.795900000000     0          
O        O      0.592550000000     0.313550000000     0.813550000000     0          
T        Si     0.590150000000     0.351000000000     0.791850000000     0          
T        Si     0.708150000000     0.149000000000     0.590150000000     0          
T        Si     0.851000000000     0.208150000000     0.590150000000     0          
T        Si     0.791850000000     0.351000000000     0.590150000000     0          
T        Si     0.649000000000     0.291850000000     0.590150000000     0          
T        Si     0.708150000000     0.351000000000     0.909850000000     0          
T        Si     0.649000000000     0.208150000000     0.909850000000     0          
T        Si     0.791850000000     0.149000000000     0.909850000000     0          
T        Si     0.851000000000     0.291850000000     0.909850000000     0          
T        Si     0.590150000000     0.208150000000     0.649000000000     0          
T        Si     0.791850000000     0.090150000000     0.649000000000     0          
T        Si     0.909850000000     0.291850000000     0.649000000000     0          
T        Si     0.708150000000     0.409850000000     0.649000000000     0          
T        Si     0.590150000000     0.291850000000     0.851000000000     0          
T        Si     0.708150000000     0.090150000000     0.851000000000     0          
T        Si     0.909850000000     0.208150000000     0.851000000000     0          
T        Si     0.791850000000     0.409850000000     0.851000000000     0          
T        Si     0.649000000000     0.090150000000     0.708150000000     0          
T        Si     0.649000000000     0.409850000000     0.791850000000     0          
T        Si     0.590150000000     0.149000000000     0.791850000000     0          
T        Si     0.851000000000     0.090150000000     0.791850000000     0          
T        Si     0.909850000000     0.351000000000     0.791850000000     0          
T        Si     0.851000000000     0.409850000000     0.708150000000     0          
T        Si     0.590150000000     0.351000000000     0.708150000000     0          
T        Si     0.909850000000     0.149000000000     0.708150000000     0          
O        O      0.500000000000     0.592800000000     0.167400000000     0          
O        O      0.545900000000     0.622400000000     0.122400000000     0          
O        O      0.557900000000     0.625000000000     0.192100000000     0          
O        O      0.563550000000     0.563550000000     0.157450000000     0          
T        Si     0.541850000000     0.601000000000     0.159850000000     0          
O        O      0.907200000000     0.500000000000     0.167400000000     0          
O        O      0.877600000000     0.545900000000     0.122400000000     0          
O        O      0.875000000000     0.557900000000     0.192100000000     0          
O        O      0.936450000000     0.563550000000     0.157450000000     0          
T        Si     0.899000000000     0.541850000000     0.159850000000     0          
O        O      0.500000000000     0.907200000000     0.167400000000     0          
O        O      0.954100000000     0.877600000000     0.122400000000     0          
O        O      0.942100000000     0.875000000000     0.192100000000     0          
O        O      0.936450000000     0.936450000000     0.157450000000     0          
T        Si     0.958150000000     0.899000000000     0.159850000000     0          
O        O      0.592800000000     0.500000000000     0.167400000000     0          
O        O      0.622400000000     0.954100000000     0.122400000000     0          
O        O      0.625000000000     0.942100000000     0.192100000000     0          
O        O      0.563550000000     0.936450000000     0.157450000000     0          
T        Si     0.601000000000     0.958150000000     0.159850000000     0          
O        O      0.500000000000     0.907200000000     0.332600000000     0          
O        O      0.545900000000     0.877600000000     0.377600000000     0          
O        O      0.557900000000     0.875000000000     0.307900000000     0          
O        O      0.563550000000     0.936450000000     0.342550000000     0          
T        Si     0.541850000000     0.899000000000     0.340150000000     0          
O        O      0.592800000000     0.500000000000     0.332600000000     0          
O        O      0.622400000000     0.545900000000     0.377600000000     0          
O        O      0.625000000000     0.557900000000     0.307900000000     0          
O        O      0.563550000000     0.563550000000     0.342550000000     0          
T        Si     0.601000000000     0.541850000000     0.340150000000     0          
O        O      0.500000000000     0.592800000000     0.332600000000     0          
O        O      0.954100000000     0.622400000000     0.377600000000     0          
O        O      0.942100000000     0.625000000000     0.307900000000     0          
O        O      0.936450000000     0.563550000000     0.342550000000     0          
T        Si     0.958150000000     0.601000000000     0.340150000000     0          
O        O      0.907200000000     0.500000000000     0.332600000000     0          
O        O      0.877600000000     0.954100000000     0.377600000000     0          
O        O      0.875000000000     0.942100000000     0.307900000000     0          
O        O      0.936450000000     0.936450000000     0.342550000000     0          
T        Si     0.899000000000     0.958150000000     0.340150000000     0          
O        O      0.667400000000     0.500000000000     0.092800000000     0          
O        O      0.622400000000     0.545900000000     0.122400000000     0          
O        O      0.692100000000     0.557900000000     0.125000000000     0          
O        O      0.657450000000     0.563550000000     0.063550000000     0          
T        Si     0.659850000000     0.541850000000     0.101000000000     0          
O        O      0.500000000000     0.667400000000     0.092800000000     0          
O        O      0.954100000000     0.622400000000     0.122400000000     0          
O        O      0.942100000000     0.692100000000     0.125000000000     0          
O        O      0.936450000000     0.657450000000     0.063550000000     0          
T        Si     0.958150000000     0.659850000000     0.101000000000     0          
O        O      0.832600000000     0.500000000000     0.092800000000     0          
O        O      0.877600000000     0.954100000000     0.122400000000     0          
O        O      0.807900000000     0.942100000000     0.125000000000     0          
O        O      0.842550000000     0.936450000000     0.063550000000     0          
T        Si     0.840150000000     0.958150000000     0.101000000000     0          
O        O      0.500000000000     0.832600000000     0.092800000000     0          
O        O      0.545900000000     0.877600000000     0.122400000000     0          
O        O      0.557900000000     0.807900000000     0.125000000000     0          
O        O      0.563550000000     0.842550000000     0.063550000000     0          
T        Si     0.541850000000     0.840150000000     0.101000000000     0          
O        O      0.667400000000     0.500000000000     0.407200000000     0          
O        O      0.622400000000     0.954100000000     0.377600000000     0          
O        O      0.692100000000     0.942100000000     0.375000000000     0          
O        O      0.657450000000     0.936450000000     0.436450000000     0          
T        Si     0.659850000000     0.958150000000     0.399000000000     0          
O        O      0.500000000000     0.667400000000     0.407200000000     0          
O        O      0.545900000000     0.622400000000     0.377600000000     0          
O        O      0.557900000000     0.692100000000     0.375000000000     0          
O        O      0.563550000000     0.657450000000     0.436450000000     0          
T        Si     0.541850000000     0.659850000000     0.399000000000     0          
O        O      0.832600000000     0.500000000000     0.407200000000     0          
O        O      0.877600000000     0.545900000000     0.377600000000     0          
O        O      0.807900000000     0.557900000000     0.375000000000     0          
O        O      0.842550000000     0.563550000000     0.436450000000     0          
T        Si     0.840150000000     0.541850000000     0.399000000000     0          
O        O      0.500000000000     0.832600000000     0.407200000000     0          
O        O      0.954100000000     0.877600000000     0.377600000000     0          
O        O      0.942100000000     0.807900000000     0.375000000000     0          
O        O      0.936450000000     0.842550000000     0.436450000000     0          
T        Si     0.958150000000     0.840150000000     0.399000000000     0          
O        O      0.592800000000     0.667400000000     0.000000000000     0          
O        O      0.622400000000     0.622400000000     0.045900000000     0          
O        O      0.625000000000     0.692100000000     0.057900000000     0          
O        O      0.563550000000     0.657450000000     0.063550000000     0          
T        Si     0.601000000000     0.659850000000     0.041850000000     0          
O        O      0.592800000000     0.832600000000     0.000000000000     0          
O        O      0.622400000000     0.877600000000     0.454100000000     0          
O        O      0.625000000000     0.807900000000     0.442100000000     0          
O        O      0.563550000000     0.842550000000     0.436450000000     0          
T        Si     0.601000000000     0.840150000000     0.458150000000     0          
O        O      0.667400000000     0.592800000000     0.000000000000     0          
O        O      0.622400000000     0.622400000000     0.454100000000     0          
O        O      0.692100000000     0.625000000000     0.442100000000     0          
O        O      0.657450000000     0.563550000000     0.436450000000     0          
T        Si     0.659850000000     0.601000000000     0.458150000000     0          
O        O      0.907200000000     0.667400000000     0.000000000000     0          
O        O      0.877600000000     0.622400000000     0.454100000000     0          
O        O      0.875000000000     0.692100000000     0.442100000000     0          
O        O      0.936450000000     0.657450000000     0.436450000000     0          
T        Si     0.899000000000     0.659850000000     0.458150000000     0          
O        O      0.832600000000     0.907200000000     0.000000000000     0          
O        O      0.877600000000     0.877600000000     0.454100000000     0          
O        O      0.807900000000     0.875000000000     0.442100000000     0          
O        O      0.842550000000     0.936450000000     0.436450000000     0          
T        Si     0.840150000000     0.899000000000     0.458150000000     0          
O        O      0.907200000000     0.832600000000     0.000000000000     0          
O        O      0.877600000000     0.877600000000     0.045900000000     0          
O        O      0.875000000000     0.807900000000     0.057900000000     0          
O        O      0.936450000000     0.842550000000     0.063550000000     0          
T        Si     0.899000000000     0.840150000000     0.041850000000     0          
O        O      0.667400000000     0.907200000000     0.000000000000     0          
O        O      0.622400000000     0.877600000000     0.045900000000     0          
O        O      0.692100000000     0.875000000000     0.057900000000     0          
O        O      0.657450000000     0.936450000000     0.063550000000     0          
T        Si     0.659850000000     0.899000000000     0.041850000000     0          
O        O      0.832600000000     0.592800000000     0.000000000000     0          
O        O      0.877600000000     0.622400000000     0.045900000000     0          
O        O      0.807900000000     0.625000000000     0.057900000000     0          
O        O      0.842550000000     0.563550000000     0.063550000000     0          
T        Si     0.840150000000     0.601000000000     0.041850000000     0          
O        O      0.942100000000     0.875000000000     0.307900000000     0          
T        Si     0.958150000000     0.899000000000     0.340150000000     0          
O        O      0.625000000000     0.942100000000     0.307900000000     0          
T        Si     0.601000000000     0.958150000000     0.340150000000     0          
O        O      0.557900000000     0.625000000000     0.307900000000     0          
T        Si     0.541850000000     0.601000000000     0.340150000000     0          
O        O      0.875000000000     0.557900000000     0.307900000000     0          
T        Si     0.899000000000     0.541850000000     0.340150000000     0          
O        O      0.942100000000     0.625000000000     0.192100000000     0          
T        Si     0.958150000000     0.601000000000     0.159850000000     0          
O        O      0.875000000000     0.942100000000     0.192100000000     0          
T        Si     0.899000000000     0.958150000000     0.159850000000     0          
O        O      0.557900000000     0.875000000000     0.192100000000     0          
T        Si     0.541850000000     0.899000000000     0.159850000000     0          
O        O      0.625000000000     0.557900000000     0.192100000000     0          
T        Si     0.601000000000     0.541850000000     0.159850000000     0          
O        O      0.807900000000     0.942100000000     0.375000000000     0          
T        Si     0.840150000000     0.958150000000     0.399000000000     0          
O        O      0.557900000000     0.807900000000     0.375000000000     0          
T        Si     0.541850000000     0.840150000000     0.399000000000     0          
O        O      0.692100000000     0.557900000000     0.375000000000     0          
T        Si     0.659850000000     0.541850000000     0.399000000000     0          
O        O      0.942100000000     0.692100000000     0.375000000000     0          
T        Si     0.958150000000     0.659850000000     0.399000000000     0          
O        O      0.807900000000     0.557900000000     0.125000000000     0          
T        Si     0.840150000000     0.541850000000     0.101000000000     0          
O        O      0.942100000000     0.807900000000     0.125000000000     0          
T        Si     0.958150000000     0.840150000000     0.101000000000     0          
O        O      0.692100000000     0.942100000000     0.125000000000     0          
T        Si     0.659850000000     0.958150000000     0.101000000000     0          
O        O      0.557900000000     0.692100000000     0.125000000000     0          
T        Si     0.541850000000     0.659850000000     0.101000000000     0          
O        O      0.875000000000     0.807900000000     0.442100000000     0          
T        Si     0.899000000000     0.840150000000     0.458150000000     0          
O        O      0.875000000000     0.692100000000     0.057900000000     0          
T        Si     0.899000000000     0.659850000000     0.041850000000     0          
O        O      0.807900000000     0.875000000000     0.057900000000     0          
T        Si     0.840150000000     0.899000000000     0.041850000000     0          
O        O      0.625000000000     0.807900000000     0.057900000000     0          
T        Si     0.601000000000     0.840150000000     0.041850000000     0          
O        O      0.692100000000     0.625000000000     0.057900000000     0          
T        Si     0.659850000000     0.601000000000     0.041850000000     0          
O        O      0.625000000000     0.692100000000     0.442100000000     0          
T        Si     0.601000000000     0.659850000000     0.458150000000     0          
O        O      0.807900000000     0.625000000000     0.442100000000     0          
T        Si     0.840150000000     0.601000000000     0.458150000000     0          
O        O      0.692100000000     0.875000000000     0.442100000000     0          
T        Si     0.659850000000     0.899000000000     0.458150000000     0          
O        O      0.750000000000     0.842800000000     0.417400000000     0          
O        O      0.795900000000     0.872400000000     0.372400000000     0          
O        O      0.813550000000     0.813550000000     0.407450000000     0          
T        Si     0.791850000000     0.851000000000     0.409850000000     0          
O        O      0.657200000000     0.750000000000     0.417400000000     0          
O        O      0.627600000000     0.795900000000     0.372400000000     0          
O        O      0.686450000000     0.813550000000     0.407450000000     0          
T        Si     0.649000000000     0.791850000000     0.409850000000     0          
O        O      0.750000000000     0.657200000000     0.417400000000     0          
O        O      0.704100000000     0.627600000000     0.372400000000     0          
O        O      0.686450000000     0.686450000000     0.407450000000     0          
T        Si     0.708150000000     0.649000000000     0.409850000000     0          
O        O      0.842800000000     0.750000000000     0.417400000000     0          
O        O      0.872400000000     0.704100000000     0.372400000000     0          
O        O      0.813550000000     0.686450000000     0.407450000000     0          
T        Si     0.851000000000     0.708150000000     0.409850000000     0          
O        O      0.750000000000     0.657200000000     0.082600000000     0          
O        O      0.795900000000     0.627600000000     0.127600000000     0          
O        O      0.813550000000     0.686450000000     0.092550000000     0          
T        Si     0.791850000000     0.649000000000     0.090150000000     0          
O        O      0.842800000000     0.750000000000     0.082600000000     0          
O        O      0.872400000000     0.795900000000     0.127600000000     0          
O        O      0.813550000000     0.813550000000     0.092550000000     0          
T        Si     0.851000000000     0.791850000000     0.090150000000     0          
O        O      0.750000000000     0.842800000000     0.082600000000     0          
O        O      0.704100000000     0.872400000000     0.127600000000     0          
O        O      0.686450000000     0.813550000000     0.092550000000     0          
T        Si     0.708150000000     0.851000000000     0.090150000000     0          
O        O      0.657200000000     0.750000000000     0.082600000000     0          
O        O      0.627600000000     0.704100000000     0.127600000000     0          
O        O      0.686450000000     0.686450000000     0.092550000000     0          
T        Si     0.649000000000     0.708150000000     0.090150000000     0          
O        O      0.917400000000     0.750000000000     0.342800000000     0          
O        O      0.872400000000     0.795900000000     0.372400000000     0          
O        O      0.907450000000     0.813550000000     0.313550000000     0          
T        Si     0.909850000000     0.791850000000     0.351000000000     0          
O        O      0.750000000000     0.917400000000     0.342800000000     0          
O        O      0.704100000000     0.872400000000     0.372400000000     0          
O        O      0.686450000000     0.907450000000     0.313550000000     0          
T        Si     0.708150000000     0.909850000000     0.351000000000     0          
O        O      0.582600000000     0.750000000000     0.342800000000     0          
O        O      0.627600000000     0.704100000000     0.372400000000     0          
O        O      0.592550000000     0.686450000000     0.313550000000     0          
T        Si     0.590150000000     0.708150000000     0.351000000000     0          
O        O      0.750000000000     0.582600000000     0.342800000000     0          
O        O      0.795900000000     0.627600000000     0.372400000000     0          
O        O      0.813550000000     0.592550000000     0.313550000000     0          
T        Si     0.791850000000     0.590150000000     0.351000000000     0          
O        O      0.917400000000     0.750000000000     0.157200000000     0          
O        O      0.872400000000     0.704100000000     0.127600000000     0          
O        O      0.907450000000     0.686450000000     0.186450000000     0          
T        Si     0.909850000000     0.708150000000     0.149000000000     0          
O        O      0.750000000000     0.917400000000     0.157200000000     0          
O        O      0.795900000000     0.872400000000     0.127600000000     0          
O        O      0.813550000000     0.907450000000     0.186450000000     0          
T        Si     0.791850000000     0.909850000000     0.149000000000     0          
O        O      0.582600000000     0.750000000000     0.157200000000     0          
O        O      0.627600000000     0.795900000000     0.127600000000     0          
O        O      0.592550000000     0.813550000000     0.186450000000     0          
T        Si     0.590150000000     0.791850000000     0.149000000000     0          
O        O      0.750000000000     0.582600000000     0.157200000000     0          
O        O      0.704100000000     0.627600000000     0.127600000000     0          
O        O      0.686450000000     0.592550000000     0.186450000000     0          
T        Si     0.708150000000     0.590150000000     0.149000000000     0          
O        O      0.842800000000     0.917400000000     0.250000000000     0          
O        O      0.872400000000     0.872400000000     0.295900000000     0          
O        O      0.813550000000     0.907450000000     0.313550000000     0          
T        Si     0.851000000000     0.909850000000     0.291850000000     0          
O        O      0.842800000000     0.582600000000     0.250000000000     0          
O        O      0.872400000000     0.627600000000     0.204100000000     0          
O        O      0.813550000000     0.592550000000     0.186450000000     0          
T        Si     0.851000000000     0.590150000000     0.208150000000     0          
O        O      0.917400000000     0.842800000000     0.250000000000     0          
O        O      0.872400000000     0.872400000000     0.204100000000     0          
O        O      0.907450000000     0.813550000000     0.186450000000     0          
T        Si     0.909850000000     0.851000000000     0.208150000000     0          
O        O      0.657200000000     0.917400000000     0.250000000000     0          
O        O      0.627600000000     0.872400000000     0.204100000000     0          
O        O      0.686450000000     0.907450000000     0.186450000000     0          
T        Si     0.649000000000     0.909850000000     0.208150000000     0          
O        O      0.582600000000     0.657200000000     0.250000000000     0          
O        O      0.627600000000     0.627600000000     0.204100000000     0          
O        O      0.592550000000     0.686450000000     0.186450000000     0          
T        Si     0.590150000000     0.649000000000     0.208150000000     0          
O        O      0.657200000000     0.582600000000     0.250000000000     0          
O        O      0.627600000000     0.627600000000     0.295900000000     0          
O        O      0.686450000000     0.592550000000     0.313550000000     0          
T        Si     0.649000000000     0.590150000000     0.291850000000     0          
O        O      0.917400000000     0.657200000000     0.250000000000     0          
O        O      0.872400000000     0.627600000000     0.295900000000     0          
O        O      0.907450000000     0.686450000000     0.313550000000     0          
T        Si     0.909850000000     0.649000000000     0.291850000000     0          
O        O      0.582600000000     0.842800000000     0.250000000000     0          
O        O      0.627600000000     0.872400000000     0.295900000000     0          
O        O      0.592550000000     0.813550000000     0.313550000000     0          
T        Si     0.590150000000     0.851000000000     0.291850000000     0          
T        Si     0.708150000000     0.649000000000     0.090150000000     0          
T        Si     0.851000000000     0.708150000000     0.090150000000     0          
T        Si     0.791850000000     0.851000000000     0.090150000000     0          
T        Si     0.649000000000     0.791850000000     0.090150000000     0          
T        Si     0.708150000000     0.851000000000     0.409850000000     0          
T        Si     0.649000000000     0.708150000000     0.409850000000     0          
T        Si     0.791850000000     0.649000000000     0.409850000000     0          
T        Si     0.851000000000     0.791850000000     0.409850000000     0          
T        Si     0.590150000000     0.708150000000     0.149000000000     0          
T        Si     0.791850000000     0.590150000000     0.149000000000     0          
T        Si     0.909850000000     0.791850000000     0.149000000000     0          
T        Si     0.708150000000     0.909850000000     0.149000000000     0          
T        Si     0.590150000000     0.791850000000     0.351000000000     0          
T        Si     0.708150000000     0.590150000000     0.351000000000     0          
T        Si     0.909850000000     0.708150000000     0.351000000000     0          
T        Si     0.791850000000     0.909850000000     0.351000000000     0          
T        Si     0.649000000000     0.590150000000     0.208150000000     0          
T        Si     0.649000000000     0.909850000000     0.291850000000     0          
T        Si     0.590150000000     0.649000000000     0.291850000000     0          
T        Si     0.851000000000     0.590150000000     0.291850000000     0          
T        Si     0.909850000000     0.851000000000     0.291850000000     0          
T        Si     0.851000000000     0.909850000000     0.208150000000     0          
T        Si     0.590150000000     0.851000000000     0.208150000000     0          
T        Si     0.909850000000     0.649000000000     0.208150000000     0          
O        O      0.500000000000     0.592800000000     0.667400000000     0          
O        O      0.545900000000     0.622400000000     0.622400000000     0          
O        O      0.557900000000     0.625000000000     0.692100000000     0          
O        O      0.563550000000     0.563550000000     0.657450000000     0          
T        Si     0.541850000000     0.601000000000     0.659850000000     0          
O        O      0.907200000000     0.500000000000     0.667400000000     0          
O        O      0.877600000000     0.545900000000     0.622400000000     0          
O        O      0.875000000000     0.557900000000     0.692100000000     0          
O        O      0.936450000000     0.563550000000     0.657450000000     0          
T        Si     0.899000000000     0.541850000000     0.659850000000     0          
O        O      0.500000000000     0.907200000000     0.667400000000     0          
O        O      0.954100000000     0.877600000000     0.622400000000     0          
O        O      0.942100000000     0.875000000000     0.692100000000     0          
O        O      0.936450000000     0.936450000000     0.657450000000     0          
T        Si     0.958150000000     0.899000000000     0.659850000000     0          
O        O      0.592800000000     0.500000000000     0.667400000000     0          
O        O      0.622400000000     0.954100000000     0.622400000000     0          
O        O      0.625000000000     0.942100000000     0.692100000000     0          
O        O      0.563550000000     0.936450000000     0.657450000000     0          
T        Si     0.601000000000     0.958150000000     0.659850000000     0          
O        O      0.500000000000     0.907200000000     0.832600000000     0          
O        O      0.545900000000     0.877600000000     0.877600000000     0          
O        O      0.557900000000     0.875000000000     0.807900000000     0          
O        O      0.563550000000     0.936450000000     0.842550000000     0          
T        Si     0.541850000000     0.899000000000     0.840150000000     0          
O        O      0.592800000000     0.500000000000     0.832600000000     0          
O        O      0.622400000000     0.545900000000     0.877600000000     0          
O        O      0.625000000000     0.557900000000     0.807900000000     0          
O        O      0.563550000000     0.563550000000     0.842550000000     0          
T        Si     0.601000000000     0.541850000000     0.840150000000     0          
O        O      0.500000000000     0.592800000000     0.832600000000     0          
O        O      0.954100000000     0.622400000000     0.877600000000     0          
O        O      0.942100000000     0.625000000000     0.807900000000     0          
O        O      0.936450000000     0.563550000000     0.842550000000     0          
T        Si     0.958150000000     0.601000000000     0.840150000000     0          
O        O      0.907200000000     0.500000000000     0.832600000000     0          
O        O      0.877600000000     0.954100000000     0.877600000000     0          
O        O      0.875000000000     0.942100000000     0.807900000000     0          
O        O      0.936450000000     0.936450000000     0.842550000000     0          
T        Si     0.899000000000     0.958150000000     0.840150000000     0          
O        O      0.667400000000     0.500000000000     0.592800000000     0          
O        O      0.622400000000     0.545900000000     0.622400000000     0          
O        O      0.692100000000     0.557900000000     0.625000000000     0          
O        O      0.657450000000     0.563550000000     0.563550000000     0          
T        Si     0.659850000000     0.541850000000     0.601000000000     0          
O        O      0.500000000000     0.667400000000     0.592800000000     0          
O        O      0.954100000000     0.622400000000     0.622400000000     0          
O        O      0.942100000000     0.692100000000     0.625000000000     0          
O        O      0.936450000000     0.657450000000     0.563550000000     0          
T        Si     0.958150000000     0.659850000000     0.601000000000     0          
O        O      0.832600000000     0.500000000000     0.592800000000     0          
O        O      0.877600000000     0.954100000000     0.622400000000     0          
O        O      0.807900000000     0.942100000000     0.625000000000     0          
O        O      0.842550000000     0.936450000000     0.563550000000     0          
T        Si     0.840150000000     0.958150000000     0.601000000000     0          
O        O      0.500000000000     0.832600000000     0.592800000000     0          
O        O      0.545900000000     0.877600000000     0.622400000000     0          
O        O      0.557900000000     0.807900000000     0.625000000000     0          
O        O      0.563550000000     0.842550000000     0.563550000000     0          
T        Si     0.541850000000     0.840150000000     0.601000000000     0          
O        O      0.667400000000     0.500000000000     0.907200000000     0          
O        O      0.622400000000     0.954100000000     0.877600000000     0          
O        O      0.692100000000     0.942100000000     0.875000000000     0          
O        O      0.657450000000     0.936450000000     0.936450000000     0          
T        Si     0.659850000000     0.958150000000     0.899000000000     0          
O        O      0.500000000000     0.667400000000     0.907200000000     0          
O        O      0.545900000000     0.622400000000     0.877600000000     0          
O        O      0.557900000000     0.692100000000     0.875000000000     0          
O        O      0.563550000000     0.657450000000     0.936450000000     0          
T        Si     0.541850000000     0.659850000000     0.899000000000     0          
O        O      0.832600000000     0.500000000000     0.907200000000     0          
O        O      0.877600000000     0.545900000000     0.877600000000     0          
O        O      0.807900000000     0.557900000000     0.875000000000     0          
O        O      0.842550000000     0.563550000000     0.936450000000     0          
T        Si     0.840150000000     0.541850000000     0.899000000000     0          
O        O      0.500000000000     0.832600000000     0.907200000000     0          
O        O      0.954100000000     0.877600000000     0.877600000000     0          
O        O      0.942100000000     0.807900000000     0.875000000000     0          
O        O      0.936450000000     0.842550000000     0.936450000000     0          
T        Si     0.958150000000     0.840150000000     0.899000000000     0          
O        O      0.592800000000     0.667400000000     0.500000000000     0          
O        O      0.622400000000     0.622400000000     0.545900000000     0          
O        O      0.625000000000     0.692100000000     0.557900000000     0          
O        O      0.563550000000     0.657450000000     0.563550000000     0          
T        Si     0.601000000000     0.659850000000     0.541850000000     0          
O        O      0.592800000000     0.832600000000     0.500000000000     0          
O        O      0.622400000000     0.877600000000     0.954100000000     0          
O        O      0.625000000000     0.807900000000     0.942100000000     0          
O        O      0.563550000000     0.842550000000     0.936450000000     0          
T        Si     0.601000000000     0.840150000000     0.958150000000     0          
O        O      0.667400000000     0.592800000000     0.500000000000     0          
O        O      0.622400000000     0.622400000000     0.954100000000     0          
O        O      0.692100000000     0.625000000000     0.942100000000     0          
O        O      0.657450000000     0.563550000000     0.936450000000     0          
T        Si     0.659850000000     0.601000000000     0.958150000000     0          
O        O      0.907200000000     0.667400000000     0.500000000000     0          
O        O      0.877600000000     0.622400000000     0.954100000000     0          
O        O      0.875000000000     0.692100000000     0.942100000000     0          
O        O      0.936450000000     0.657450000000     0.936450000000     0          
T        Si     0.899000000000     0.659850000000     0.958150000000     0          
O        O      0.832600000000     0.907200000000     0.500000000000     0          
O        O      0.877600000000     0.877600000000     0.954100000000     0          
O        O      0.807900000000     0.875000000000     0.942100000000     0          
O        O      0.842550000000     0.936450000000     0.936450000000     0          
T        Si     0.840150000000     0.899000000000     0.958150000000     0          
O        O      0.907200000000     0.832600000000     0.500000000000     0          
O        O      0.877600000000     0.877600000000     0.545900000000     0          
O        O      0.875000000000     0.807900000000     0.557900000000     0          
O        O      0.936450000000     0.842550000000     0.563550000000     0          
T        Si     0.899000000000     0.840150000000     0.541850000000     0          
O        O      0.667400000000     0.907200000000     0.500000000000     0          
O        O      0.622400000000     0.877600000000     0.545900000000     0          
O        O      0.692100000000     0.875000000000     0.557900000000     0          
O        O      0.657450000000     0.936450000000     0.563550000000     0          
T        Si     0.659850000000     0.899000000000     0.541850000000     0          
O        O      0.832600000000     0.592800000000     0.500000000000     0          
O        O      0.877600000000     0.622400000000     0.545900000000     0          
O        O      0.807900000000     0.625000000000     0.557900000000     0          
O        O      0.842550000000     0.563550000000     0.563550000000     0          
T        Si     0.840150000000     0.601000000000     0.541850000000     0          
O        O      0.942100000000     0.875000000000     0.807900000000     0          
T        Si     0.958150000000     0.899000000000     0.840150000000     0          
O        O      0.625000000000     0.942100000000     0.807900000000     0          
T        Si     0.601000000000     0.958150000000     0.840150000000     0          
O        O      0.557900000000     0.625000000000     0.807900000000     0          
T        Si     0.541850000000     0.601000000000     0.840150000000     0          
O        O      0.875000000000     0.557900000000     0.807900000000     0          
T        Si     0.899000000000     0.541850000000     0.840150000000     0          
O        O      0.942100000000     0.625000000000     0.692100000000     0          
T        Si     0.958150000000     0.601000000000     0.659850000000     0          
O        O      0.875000000000     0.942100000000     0.692100000000     0          
T        Si     0.899000000000     0.958150000000     0.659850000000     0          
O        O      0.557900000000     0.875000000000     0.692100000000     0          
T        Si     0.541850000000     0.899000000000     0.659850000000     0          
O        O      0.625000000000     0.557900000000     0.692100000000     0          
T        Si     0.601000000000     0.541850000000     0.659850000000     0          
O        O      0.807900000000     0.942100000000     0.875000000000     0          
T        Si     0.840150000000     0.958150000000     0.899000000000     0          
O        O      0.557900000000     0.807900000000     0.875000000000     0          
T        Si     0.541850000000     0.840150000000     0.899000000000     0          
O        O      0.692100000000     0.557900000000     0.875000000000     0          
T        Si     0.659850000000     0.541850000000     0.899000000000     0          
O        O      0.942100000000     0.692100000000     0.875000000000     0          
T        Si     0.958150000000     0.659850000000     0.899000000000     0          
O        O      0.807900000000     0.557900000000     0.625000000000     0          
T        Si     0.840150000000     0.541850000000     0.601000000000     0          
O        O      0.942100000000     0.807900000000     0.625000000000     0          
T        Si     0.958150000000     0.840150000000     0.601000000000     0          
O        O      0.692100000000     0.942100000000     0.625000000000     0          
T        Si     0.659850000000     0.958150000000     0.601000000000     0          
O        O      0.557900000000     0.692100000000     0.625000000000     0          
T        Si     0.541850000000     0.659850000000     0.601000000000     0          
O        O      0.875000000000     0.807900000000     0.942100000000     0          
T        Si     0.899000000000     0.840150000000     0.958150000000     0          
O        O      0.875000000000     0.692100000000     0.557900000000     0          
T        Si     0.899000000000     0.659850000000     0.541850000000     0          
O        O      0.807900000000     0.875000000000     0.557900000000     0          
T        Si     0.840150000000     0.899000000000     0.541850000000     0          
O        O      0.625000000000     0.807900000000     0.557900000000     0          
T        Si     0.601000000000     0.840150000000     0.541850000000     0          
O        O      0.692100000000     0.625000000000     0.557900000000     0          
T        Si     0.659850000000     0.601000000000     0.541850000000     0          
O        O      0.625000000000     0.692100000000     0.942100000000     0          
T        Si     0.601000000000     0.659850000000     0.958150000000     0          
O        O      0.807900000000     0.625000000000     0.942100000000     0          
T        Si     0.840150000000     0.601000000000     0.958150000000     0          
O        O      0.692100000000     0.875000000000     0.942100000000     0          
T        Si     0.659850000000     0.899000000000     0.958150000000     0          
O        O      0.750000000000     0.842800000000     0.917400000000     0          
O        O      0.795900000000     0.872400000000     0.872400000000     0          
O        O      0.813550000000     0.813550000000     0.907450000000     0          
T        Si     0.791850000000     0.851000000000     0.909850000000     0          
O        O      0.657200000000     0.750000000000     0.917400000000     0          
O        O      0.627600000000     0.795900000000     0.872400000000     0          
O        O      0.686450000000     0.813550000000     0.907450000000     0          
T        Si     0.649000000000     0.791850000000     0.909850000000     0          
O        O      0.750000000000     0.657200000000     0.917400000000     0          
O        O      0.704100000000     0.627600000000     0.872400000000     0          
O        O      0.686450000000     0.686450000000     0.907450000000     0          
T        Si     0.708150000000     0.649000000000     0.909850000000     0          
O        O      0.842800000000     0.750000000000     0.917400000000     0          
O        O      0.872400000000     0.704100000000     0.872400000000     0          
O        O      0.813550000000     0.686450000000     0.907450000000     0          
T        Si     0.851000000000     0.708150000000     0.909850000000     0          
O        O      0.750000000000     0.657200000000     0.582600000000     0          
O        O      0.795900000000     0.627600000000     0.627600000000     0          
O        O      0.813550000000     0.686450000000     0.592550000000     0          
T        Si     0.791850000000     0.649000000000     0.590150000000     0          
O        O      0.842800000000     0.750000000000     0.582600000000     0          
O        O      0.872400000000     0.795900000000     0.627600000000     0          
O        O      0.813550000000     0.813550000000     0.592550000000     0          
T        Si     0.851000000000     0.791850000000     0.590150000000     0          
O        O      0.750000000000     0.842800000000     0.582600000000     0          
O        O      0.704100000000     0.872400000000     0.627600000000     0          
O        O      0.686450000000     0.813550000000     0.592550000000     0          
T        Si     0.708150000000     0.851000000000     0.590150000000     0          
O        O      0.657200000000     0.750000000000     0.582600000000     0          
O        O      0.627600000000     0.704100000000     0.627600000000     0          
O        O      0.686450000000     0.686450000000     0.592550000000     0          
T        Si     0.649000000000     0.708150000000     0.590150000000     0          
O        O      0.917400000000     0.750000000000     0.842800000000     0          
O        O      0.872400000000     0.795900000000     0.872400000000     0          
O        O      0.907450000000     0.813550000000     0.813550000000     0          
T        Si     0.909850000000     0.791850000000     0.851000000000     0          
O        O      0.750000000000     0.917400000000     0.842800000000     0          
O        O      0.704100000000     0.872400000000     0.872400000000     0          
O        O      0.686450000000     0.907450000000     0.813550000000     0          
T        Si     0.708150000000     0.909850000000     0.851000000000     0          
O        O      0.582600000000     0.750000000000     0.842800000000     0          
O        O      0.627600000000     0.704100000000     0.872400000000     0          
O        O      0.592550000000     0.686450000000     0.813550000000     0          
T        Si     0.590150000000     0.708150000000     0.851000000000     0          
O        O      0.750000000000     0.582600000000     0.842800000000     0          
O        O      0.795900000000     0.627600000000     0.872400000000     0          
O        O      0.813550000000     0.592550000000     0.813550000000     0          
T        Si     0.791850000000     0.590150000000     0.851000000000     0          
O        O      0.917400000000     0.750000000000     0.657200000000     0          
O        O      0.872400000000     0.704100000000     0.627600000000     0          
O        O      0.907450000000     0.686450000000     0.686450000000     0          
T        Si     0.909850000000     0.708150000000     0.649000000000     0          
O        O      0.750000000000     0.917400000000     0.657200000000     0          
O        O      0.795900000000     0.872400000000     0.627600000000     0          
O        O      0.813550000000     0.907450000000     0.686450000000     0          
T        Si     0.791850000000     0.909850000000     0.649000000000     0          
O        O      0.582600000000     0.750000000000     0.657200000000     0          
O        O      0.627600000000     0.795900000000     0.627600000000     0          
O        O      0.592550000000     0.813550000000     0.686450000000     0          
T        Si     0.590150000000     0.791850000000     0.649000000000     0          
O        O      0.750000000000     0.582600000000     0.657200000000     0          
O        O      0.704100000000     0.627600000000     0.627600000000     0          
O        O      0.686450000000     0.592550000000     0.686450000000     0          
T        Si     0.708150000000     0.590150000000     0.649000000000     0          
O        O      0.842800000000     0.917400000000     0.750000000000     0          
O        O      0.872400000000     0.872400000000     0.795900000000     0          
O        O      0.813550000000     0.907450000000     0.813550000000     0          
T        Si     0.851000000000     0.909850000000     0.791850000000     0          
O        O      0.842800000000     0.582600000000     0.750000000000     0          
O        O      0.872400000000     0.627600000000     0.704100000000     0          
O        O      0.813550000000     0.592550000000     0.686450000000     0          
T        Si     0.851000000000     0.590150000000     0.708150000000     0          
O        O      0.917400000000     0.842800000000     0.750000000000     0          
O        O      0.872400000000     0.872400000000     0.704100000000     0          
O        O      0.907450000000     0.813550000000     0.686450000000     0          
T        Si     0.909850000000     0.851000000000     0.708150000000     0          
O        O      0.657200000000     0.917400000000     0.750000000000     0          
O        O      0.627600000000     0.872400000000     0.704100000000     0          
O        O      0.686450000000     0.907450000000     0.686450000000     0          
T        Si     0.649000000000     0.909850000000     0.708150000000     0          
O        O      0.582600000000     0.657200000000     0.750000000000     0          
O        O      0.627600000000     0.627600000000     0.704100000000     0          
O        O      0.592550000000     0.686450000000     0.686450000000     0          
T        Si     0.590150000000     0.649000000000     0.708150000000     0          
O        O      0.657200000000     0.582600000000     0.750000000000     0          
O        O      0.627600000000     0.627600000000     0.795900000000     0          
O        O      0.686450000000     0.592550000000     0.813550000000     0          
T        Si     0.649000000000     0.590150000000     0.791850000000     0          
O        O      0.917400000000     0.657200000000     0.750000000000     0          
O        O      0.872400000000     0.627600000000     0.795900000000     0          
O        O      0.907450000000     0.686450000000     0.813550000000     0          
T        Si     0.909850000000     0.649000000000     0.791850000000     0          
O        O      0.582600000000     0.842800000000     0.750000000000     0          
O        O      0.627600000000     0.872400000000     0.795900000000     0          
O        O      0.592550000000     0.813550000000     0.813550000000     0          
T        Si     0.590150000000     0.851000000000     0.791850000000     0          
T        Si     0.708150000000     0.649000000000     0.590150000000     0          
T        Si     0.851000000000     0.708150000000     0.590150000000     0          
T        Si     0.791850000000     0.851000000000     0.590150000000     0          
T        Si     0.649000000000     0.791850000000     0.590150000000     0          
T        Si     0.708150000000     0.851000000000     0.909850000000     0          
T        Si     0.649000000000     0.708150000000     0.909850000000     0          
T        Si     0.791850000000     0.649000000000     0.909850000000     0          
T        Si     0.851000000000     0.791850000000     0.909850000000     0          
T        Si     0.590150000000     0.708150000000     0.649000000000     0          
T        Si     0.791850000000     0.590150000000     0.649000000000     0          
T        Si     0.909850000000     0.791850000000     0.649000000000     0          
T        Si     0.708150000000     0.909850000000     0.649000000000     0          
T        Si     0.590150000000     0.791850000000     0.851000000000     0          
T        Si     0.708150000000     0.590150000000     0.851000000000     0          
T        Si     0.909850000000     0.708150000000     0.851000000000     0          
T        Si     0.791850000000     0.909850000000     0.851000000000     0          
T        Si     0.649000000000     0.590150000000     0.708150000000     0          
T        Si     0.649000000000     0.909850000000     0.791850000000     0          
T        Si     0.590150000000     0.649000000000     0.791850000000     0          
T        Si     0.851000000000     0.590150000000     0.791850000000     0          
T        Si     0.909850000000     0.851000000000     0.791850000000     0          
T        Si     0.851000000000     0.909850000000     0.708150000000     0          
T        Si     0.590150000000     0.851000000000     0.708150000000     0          
T        Si     0.909850000000     0.649000000000     0.708150000000     0          


