data_zeolite

_audit_creation_method RASPA-1.0
_audit_creation_date 2021-6-7
_audit_author_name ''

_cell_length_a    6.918
_cell_length_b    14.87
_cell_length_c    17.236
_cell_angle_alpha 90
_cell_angle_beta  90
_cell_angle_gamma 90
_cell_volume      28369.3

_symmetry_cell_setting          orthorhombic
_symmetry_space_group_name_Hall 'P 1'
_symmetry_space_group_name_H-M  'P 1'
_symmetry_Int_Tables_number     1

_symmetry_equiv_pos_as_xyz 'x,y,z'

loop_
_atom_site_label
_atom_site_type_symbol
_atom_site_fract_x
_atom_site_fract_y
_atom_site_fract_z
_atom_site_charge
T        Si     0.028650000000     0.363100000000     0.170800000000     0          
T        Si     0.026725000000     0.452000000000     0.214850000000     0          
T        Si     0.211075000000     0.300250000000     0.213400000000     0          
T        Si     0.107425000000     0.420750000000     0.269750000000     0          
T        Si     0.221350000000     0.136900000000     0.420800000000     0          
T        Si     0.223275000000     0.048000000000     0.464850000000     0          
T        Si     0.038925000000     0.199750000000     0.463400000000     0          
T        Si     0.142575000000     0.079250000000     0.019750000000     0          
T        Si     0.028650000000     0.386900000000     0.329200000000     0          
T        Si     0.026725000000     0.298000000000     0.285150000000     0          
T        Si     0.211075000000     0.449750000000     0.286600000000     0          
T        Si     0.107425000000     0.329250000000     0.230250000000     0          
T        Si     0.221350000000     0.113100000000     0.079200000000     0          
T        Si     0.223275000000     0.202000000000     0.035150000000     0          
T        Si     0.038925000000     0.050250000000     0.036600000000     0          
T        Si     0.142575000000     0.170750000000     0.480250000000     0          
T        Si     0.221350000000     0.136900000000     0.329200000000     0          
T        Si     0.223275000000     0.048000000000     0.285150000000     0          
T        Si     0.038925000000     0.199750000000     0.286600000000     0          
T        Si     0.142575000000     0.079250000000     0.230250000000     0          
T        Si     0.028650000000     0.363100000000     0.079200000000     0          
T        Si     0.026725000000     0.452000000000     0.035150000000     0          
T        Si     0.211075000000     0.300250000000     0.036600000000     0          
T        Si     0.107425000000     0.420750000000     0.480250000000     0          
T        Si     0.221350000000     0.113100000000     0.170800000000     0          
T        Si     0.223275000000     0.202000000000     0.214850000000     0          
T        Si     0.038925000000     0.050250000000     0.213400000000     0          
T        Si     0.142575000000     0.170750000000     0.269750000000     0          
T        Si     0.028650000000     0.386900000000     0.420800000000     0          
T        Si     0.026725000000     0.298000000000     0.464850000000     0          
T        Si     0.211075000000     0.449750000000     0.463400000000     0          
T        Si     0.107425000000     0.329250000000     0.019750000000     0          
T        Si     0.028650000000     0.363100000000     0.670800000000     0          
T        Si     0.026725000000     0.452000000000     0.714850000000     0          
T        Si     0.211075000000     0.300250000000     0.713400000000     0          
T        Si     0.107425000000     0.420750000000     0.769750000000     0          
T        Si     0.221350000000     0.136900000000     0.920800000000     0          
T        Si     0.223275000000     0.048000000000     0.964850000000     0          
T        Si     0.038925000000     0.199750000000     0.963400000000     0          
T        Si     0.142575000000     0.079250000000     0.519750000000     0          
T        Si     0.028650000000     0.386900000000     0.829200000000     0          
T        Si     0.026725000000     0.298000000000     0.785150000000     0          
T        Si     0.211075000000     0.449750000000     0.786600000000     0          
T        Si     0.107425000000     0.329250000000     0.730250000000     0          
T        Si     0.221350000000     0.113100000000     0.579200000000     0          
T        Si     0.223275000000     0.202000000000     0.535150000000     0          
T        Si     0.038925000000     0.050250000000     0.536600000000     0          
T        Si     0.142575000000     0.170750000000     0.980250000000     0          
T        Si     0.221350000000     0.136900000000     0.829200000000     0          
T        Si     0.223275000000     0.048000000000     0.785150000000     0          
T        Si     0.038925000000     0.199750000000     0.786600000000     0          
T        Si     0.142575000000     0.079250000000     0.730250000000     0          
T        Si     0.028650000000     0.363100000000     0.579200000000     0          
T        Si     0.026725000000     0.452000000000     0.535150000000     0          
T        Si     0.211075000000     0.300250000000     0.536600000000     0          
T        Si     0.107425000000     0.420750000000     0.980250000000     0          
T        Si     0.221350000000     0.113100000000     0.670800000000     0          
T        Si     0.223275000000     0.202000000000     0.714850000000     0          
T        Si     0.038925000000     0.050250000000     0.713400000000     0          
T        Si     0.142575000000     0.170750000000     0.769750000000     0          
T        Si     0.028650000000     0.386900000000     0.920800000000     0          
T        Si     0.026725000000     0.298000000000     0.964850000000     0          
T        Si     0.211075000000     0.449750000000     0.963400000000     0          
T        Si     0.107425000000     0.329250000000     0.519750000000     0          
T        Si     0.028650000000     0.863100000000     0.170800000000     0          
T        Si     0.026725000000     0.952000000000     0.214850000000     0          
T        Si     0.211075000000     0.800250000000     0.213400000000     0          
T        Si     0.107425000000     0.920750000000     0.269750000000     0          
T        Si     0.221350000000     0.636900000000     0.420800000000     0          
T        Si     0.223275000000     0.548000000000     0.464850000000     0          
T        Si     0.038925000000     0.699750000000     0.463400000000     0          
T        Si     0.142575000000     0.579250000000     0.019750000000     0          
T        Si     0.028650000000     0.886900000000     0.329200000000     0          
T        Si     0.026725000000     0.798000000000     0.285150000000     0          
T        Si     0.211075000000     0.949750000000     0.286600000000     0          
T        Si     0.107425000000     0.829250000000     0.230250000000     0          
T        Si     0.221350000000     0.613100000000     0.079200000000     0          
T        Si     0.223275000000     0.702000000000     0.035150000000     0          
T        Si     0.038925000000     0.550250000000     0.036600000000     0          
T        Si     0.142575000000     0.670750000000     0.480250000000     0          
T        Si     0.221350000000     0.636900000000     0.329200000000     0          
T        Si     0.223275000000     0.548000000000     0.285150000000     0          
T        Si     0.038925000000     0.699750000000     0.286600000000     0          
T        Si     0.142575000000     0.579250000000     0.230250000000     0          
T        Si     0.028650000000     0.863100000000     0.079200000000     0          
T        Si     0.026725000000     0.952000000000     0.035150000000     0          
T        Si     0.211075000000     0.800250000000     0.036600000000     0          
T        Si     0.107425000000     0.920750000000     0.480250000000     0          
T        Si     0.221350000000     0.613100000000     0.170800000000     0          
T        Si     0.223275000000     0.702000000000     0.214850000000     0          
T        Si     0.038925000000     0.550250000000     0.213400000000     0          
T        Si     0.142575000000     0.670750000000     0.269750000000     0          
T        Si     0.028650000000     0.886900000000     0.420800000000     0          
T        Si     0.026725000000     0.798000000000     0.464850000000     0          
T        Si     0.211075000000     0.949750000000     0.463400000000     0          
T        Si     0.107425000000     0.829250000000     0.019750000000     0          
T        Si     0.028650000000     0.863100000000     0.670800000000     0          
T        Si     0.026725000000     0.952000000000     0.714850000000     0          
T        Si     0.211075000000     0.800250000000     0.713400000000     0          
T        Si     0.107425000000     0.920750000000     0.769750000000     0          
T        Si     0.221350000000     0.636900000000     0.920800000000     0          
T        Si     0.223275000000     0.548000000000     0.964850000000     0          
T        Si     0.038925000000     0.699750000000     0.963400000000     0          
T        Si     0.142575000000     0.579250000000     0.519750000000     0          
T        Si     0.028650000000     0.886900000000     0.829200000000     0          
T        Si     0.026725000000     0.798000000000     0.785150000000     0          
T        Si     0.211075000000     0.949750000000     0.786600000000     0          
T        Si     0.107425000000     0.829250000000     0.730250000000     0          
T        Si     0.221350000000     0.613100000000     0.579200000000     0          
T        Si     0.223275000000     0.702000000000     0.535150000000     0          
T        Si     0.038925000000     0.550250000000     0.536600000000     0          
T        Si     0.142575000000     0.670750000000     0.980250000000     0          
T        Si     0.221350000000     0.636900000000     0.829200000000     0          
T        Si     0.223275000000     0.548000000000     0.785150000000     0          
T        Si     0.038925000000     0.699750000000     0.786600000000     0          
T        Si     0.142575000000     0.579250000000     0.730250000000     0          
T        Si     0.028650000000     0.863100000000     0.579200000000     0          
T        Si     0.026725000000     0.952000000000     0.535150000000     0          
T        Si     0.211075000000     0.800250000000     0.536600000000     0          
T        Si     0.107425000000     0.920750000000     0.980250000000     0          
T        Si     0.221350000000     0.613100000000     0.670800000000     0          
T        Si     0.223275000000     0.702000000000     0.714850000000     0          
T        Si     0.038925000000     0.550250000000     0.713400000000     0          
T        Si     0.142575000000     0.670750000000     0.769750000000     0          
T        Si     0.028650000000     0.886900000000     0.920800000000     0          
T        Si     0.026725000000     0.798000000000     0.964850000000     0          
T        Si     0.211075000000     0.949750000000     0.963400000000     0          
T        Si     0.107425000000     0.829250000000     0.519750000000     0          
T        Si     0.278650000000     0.363100000000     0.170800000000     0          
T        Si     0.276725000000     0.452000000000     0.214850000000     0          
T        Si     0.461075000000     0.300250000000     0.213400000000     0          
T        Si     0.357425000000     0.420750000000     0.269750000000     0          
T        Si     0.471350000000     0.136900000000     0.420800000000     0          
T        Si     0.473275000000     0.048000000000     0.464850000000     0          
T        Si     0.288925000000     0.199750000000     0.463400000000     0          
T        Si     0.392575000000     0.079250000000     0.019750000000     0          
T        Si     0.278650000000     0.386900000000     0.329200000000     0          
T        Si     0.276725000000     0.298000000000     0.285150000000     0          
T        Si     0.461075000000     0.449750000000     0.286600000000     0          
T        Si     0.357425000000     0.329250000000     0.230250000000     0          
T        Si     0.471350000000     0.113100000000     0.079200000000     0          
T        Si     0.473275000000     0.202000000000     0.035150000000     0          
T        Si     0.288925000000     0.050250000000     0.036600000000     0          
T        Si     0.392575000000     0.170750000000     0.480250000000     0          
T        Si     0.471350000000     0.136900000000     0.329200000000     0          
T        Si     0.473275000000     0.048000000000     0.285150000000     0          
T        Si     0.288925000000     0.199750000000     0.286600000000     0          
T        Si     0.392575000000     0.079250000000     0.230250000000     0          
T        Si     0.278650000000     0.363100000000     0.079200000000     0          
T        Si     0.276725000000     0.452000000000     0.035150000000     0          
T        Si     0.461075000000     0.300250000000     0.036600000000     0          
T        Si     0.357425000000     0.420750000000     0.480250000000     0          
T        Si     0.471350000000     0.113100000000     0.170800000000     0          
T        Si     0.473275000000     0.202000000000     0.214850000000     0          
T        Si     0.288925000000     0.050250000000     0.213400000000     0          
T        Si     0.392575000000     0.170750000000     0.269750000000     0          
T        Si     0.278650000000     0.386900000000     0.420800000000     0          
T        Si     0.276725000000     0.298000000000     0.464850000000     0          
T        Si     0.461075000000     0.449750000000     0.463400000000     0          
T        Si     0.357425000000     0.329250000000     0.019750000000     0          
T        Si     0.278650000000     0.363100000000     0.670800000000     0          
T        Si     0.276725000000     0.452000000000     0.714850000000     0          
T        Si     0.461075000000     0.300250000000     0.713400000000     0          
T        Si     0.357425000000     0.420750000000     0.769750000000     0          
T        Si     0.471350000000     0.136900000000     0.920800000000     0          
T        Si     0.473275000000     0.048000000000     0.964850000000     0          
T        Si     0.288925000000     0.199750000000     0.963400000000     0          
T        Si     0.392575000000     0.079250000000     0.519750000000     0          
T        Si     0.278650000000     0.386900000000     0.829200000000     0          
T        Si     0.276725000000     0.298000000000     0.785150000000     0          
T        Si     0.461075000000     0.449750000000     0.786600000000     0          
T        Si     0.357425000000     0.329250000000     0.730250000000     0          
T        Si     0.471350000000     0.113100000000     0.579200000000     0          
T        Si     0.473275000000     0.202000000000     0.535150000000     0          
T        Si     0.288925000000     0.050250000000     0.536600000000     0          
T        Si     0.392575000000     0.170750000000     0.980250000000     0          
T        Si     0.471350000000     0.136900000000     0.829200000000     0          
T        Si     0.473275000000     0.048000000000     0.785150000000     0          
T        Si     0.288925000000     0.199750000000     0.786600000000     0          
T        Si     0.392575000000     0.079250000000     0.730250000000     0          
T        Si     0.278650000000     0.363100000000     0.579200000000     0          
T        Si     0.276725000000     0.452000000000     0.535150000000     0          
T        Si     0.461075000000     0.300250000000     0.536600000000     0          
T        Si     0.357425000000     0.420750000000     0.980250000000     0          
T        Si     0.471350000000     0.113100000000     0.670800000000     0          
T        Si     0.473275000000     0.202000000000     0.714850000000     0          
T        Si     0.288925000000     0.050250000000     0.713400000000     0          
T        Si     0.392575000000     0.170750000000     0.769750000000     0          
T        Si     0.278650000000     0.386900000000     0.920800000000     0          
T        Si     0.276725000000     0.298000000000     0.964850000000     0          
T        Si     0.461075000000     0.449750000000     0.963400000000     0          
T        Si     0.357425000000     0.329250000000     0.519750000000     0          
T        Si     0.278650000000     0.863100000000     0.170800000000     0          
T        Si     0.276725000000     0.952000000000     0.214850000000     0          
T        Si     0.461075000000     0.800250000000     0.213400000000     0          
T        Si     0.357425000000     0.920750000000     0.269750000000     0          
T        Si     0.471350000000     0.636900000000     0.420800000000     0          
T        Si     0.473275000000     0.548000000000     0.464850000000     0          
T        Si     0.288925000000     0.699750000000     0.463400000000     0          
T        Si     0.392575000000     0.579250000000     0.019750000000     0          
T        Si     0.278650000000     0.886900000000     0.329200000000     0          
T        Si     0.276725000000     0.798000000000     0.285150000000     0          
T        Si     0.461075000000     0.949750000000     0.286600000000     0          
T        Si     0.357425000000     0.829250000000     0.230250000000     0          
T        Si     0.471350000000     0.613100000000     0.079200000000     0          
T        Si     0.473275000000     0.702000000000     0.035150000000     0          
T        Si     0.288925000000     0.550250000000     0.036600000000     0          
T        Si     0.392575000000     0.670750000000     0.480250000000     0          
T        Si     0.471350000000     0.636900000000     0.329200000000     0          
T        Si     0.473275000000     0.548000000000     0.285150000000     0          
T        Si     0.288925000000     0.699750000000     0.286600000000     0          
T        Si     0.392575000000     0.579250000000     0.230250000000     0          
T        Si     0.278650000000     0.863100000000     0.079200000000     0          
T        Si     0.276725000000     0.952000000000     0.035150000000     0          
T        Si     0.461075000000     0.800250000000     0.036600000000     0          
T        Si     0.357425000000     0.920750000000     0.480250000000     0          
T        Si     0.471350000000     0.613100000000     0.170800000000     0          
T        Si     0.473275000000     0.702000000000     0.214850000000     0          
T        Si     0.288925000000     0.550250000000     0.213400000000     0          
T        Si     0.392575000000     0.670750000000     0.269750000000     0          
T        Si     0.278650000000     0.886900000000     0.420800000000     0          
T        Si     0.276725000000     0.798000000000     0.464850000000     0          
T        Si     0.461075000000     0.949750000000     0.463400000000     0          
T        Si     0.357425000000     0.829250000000     0.019750000000     0          
T        Si     0.278650000000     0.863100000000     0.670800000000     0          
T        Si     0.276725000000     0.952000000000     0.714850000000     0          
T        Si     0.461075000000     0.800250000000     0.713400000000     0          
T        Si     0.357425000000     0.920750000000     0.769750000000     0          
T        Si     0.471350000000     0.636900000000     0.920800000000     0          
T        Si     0.473275000000     0.548000000000     0.964850000000     0          
T        Si     0.288925000000     0.699750000000     0.963400000000     0          
T        Si     0.392575000000     0.579250000000     0.519750000000     0          
T        Si     0.278650000000     0.886900000000     0.829200000000     0          
T        Si     0.276725000000     0.798000000000     0.785150000000     0          
T        Si     0.461075000000     0.949750000000     0.786600000000     0          
T        Si     0.357425000000     0.829250000000     0.730250000000     0          
T        Si     0.471350000000     0.613100000000     0.579200000000     0          
T        Si     0.473275000000     0.702000000000     0.535150000000     0          
T        Si     0.288925000000     0.550250000000     0.536600000000     0          
T        Si     0.392575000000     0.670750000000     0.980250000000     0          
T        Si     0.471350000000     0.636900000000     0.829200000000     0          
T        Si     0.473275000000     0.548000000000     0.785150000000     0          
T        Si     0.288925000000     0.699750000000     0.786600000000     0          
T        Si     0.392575000000     0.579250000000     0.730250000000     0          
T        Si     0.278650000000     0.863100000000     0.579200000000     0          
T        Si     0.276725000000     0.952000000000     0.535150000000     0          
T        Si     0.461075000000     0.800250000000     0.536600000000     0          
T        Si     0.357425000000     0.920750000000     0.980250000000     0          
T        Si     0.471350000000     0.613100000000     0.670800000000     0          
T        Si     0.473275000000     0.702000000000     0.714850000000     0          
T        Si     0.288925000000     0.550250000000     0.713400000000     0          
T        Si     0.392575000000     0.670750000000     0.769750000000     0          
T        Si     0.278650000000     0.886900000000     0.920800000000     0          
T        Si     0.276725000000     0.798000000000     0.964850000000     0          
T        Si     0.461075000000     0.949750000000     0.963400000000     0          
T        Si     0.357425000000     0.829250000000     0.519750000000     0          
T        Si     0.528650000000     0.363100000000     0.170800000000     0          
T        Si     0.526725000000     0.452000000000     0.214850000000     0          
T        Si     0.711075000000     0.300250000000     0.213400000000     0          
T        Si     0.607425000000     0.420750000000     0.269750000000     0          
T        Si     0.721350000000     0.136900000000     0.420800000000     0          
T        Si     0.723275000000     0.048000000000     0.464850000000     0          
T        Si     0.538925000000     0.199750000000     0.463400000000     0          
T        Si     0.642575000000     0.079250000000     0.019750000000     0          
T        Si     0.528650000000     0.386900000000     0.329200000000     0          
T        Si     0.526725000000     0.298000000000     0.285150000000     0          
T        Si     0.711075000000     0.449750000000     0.286600000000     0          
T        Si     0.607425000000     0.329250000000     0.230250000000     0          
T        Si     0.721350000000     0.113100000000     0.079200000000     0          
T        Si     0.723275000000     0.202000000000     0.035150000000     0          
T        Si     0.538925000000     0.050250000000     0.036600000000     0          
T        Si     0.642575000000     0.170750000000     0.480250000000     0          
T        Si     0.721350000000     0.136900000000     0.329200000000     0          
T        Si     0.723275000000     0.048000000000     0.285150000000     0          
T        Si     0.538925000000     0.199750000000     0.286600000000     0          
T        Si     0.642575000000     0.079250000000     0.230250000000     0          
T        Si     0.528650000000     0.363100000000     0.079200000000     0          
T        Si     0.526725000000     0.452000000000     0.035150000000     0          
T        Si     0.711075000000     0.300250000000     0.036600000000     0          
T        Si     0.607425000000     0.420750000000     0.480250000000     0          
T        Si     0.721350000000     0.113100000000     0.170800000000     0          
T        Si     0.723275000000     0.202000000000     0.214850000000     0          
T        Si     0.538925000000     0.050250000000     0.213400000000     0          
T        Si     0.642575000000     0.170750000000     0.269750000000     0          
T        Si     0.528650000000     0.386900000000     0.420800000000     0          
T        Si     0.526725000000     0.298000000000     0.464850000000     0          
T        Si     0.711075000000     0.449750000000     0.463400000000     0          
T        Si     0.607425000000     0.329250000000     0.019750000000     0          
T        Si     0.528650000000     0.363100000000     0.670800000000     0          
T        Si     0.526725000000     0.452000000000     0.714850000000     0          
T        Si     0.711075000000     0.300250000000     0.713400000000     0          
T        Si     0.607425000000     0.420750000000     0.769750000000     0          
T        Si     0.721350000000     0.136900000000     0.920800000000     0          
T        Si     0.723275000000     0.048000000000     0.964850000000     0          
T        Si     0.538925000000     0.199750000000     0.963400000000     0          
T        Si     0.642575000000     0.079250000000     0.519750000000     0          
T        Si     0.528650000000     0.386900000000     0.829200000000     0          
T        Si     0.526725000000     0.298000000000     0.785150000000     0          
T        Si     0.711075000000     0.449750000000     0.786600000000     0          
T        Si     0.607425000000     0.329250000000     0.730250000000     0          
T        Si     0.721350000000     0.113100000000     0.579200000000     0          
T        Si     0.723275000000     0.202000000000     0.535150000000     0          
T        Si     0.538925000000     0.050250000000     0.536600000000     0          
T        Si     0.642575000000     0.170750000000     0.980250000000     0          
T        Si     0.721350000000     0.136900000000     0.829200000000     0          
T        Si     0.723275000000     0.048000000000     0.785150000000     0          
T        Si     0.538925000000     0.199750000000     0.786600000000     0          
T        Si     0.642575000000     0.079250000000     0.730250000000     0          
T        Si     0.528650000000     0.363100000000     0.579200000000     0          
T        Si     0.526725000000     0.452000000000     0.535150000000     0          
T        Si     0.711075000000     0.300250000000     0.536600000000     0          
T        Si     0.607425000000     0.420750000000     0.980250000000     0          
T        Si     0.721350000000     0.113100000000     0.670800000000     0          
T        Si     0.723275000000     0.202000000000     0.714850000000     0          
T        Si     0.538925000000     0.050250000000     0.713400000000     0          
T        Si     0.642575000000     0.170750000000     0.769750000000     0          
T        Si     0.528650000000     0.386900000000     0.920800000000     0          
T        Si     0.526725000000     0.298000000000     0.964850000000     0          
T        Si     0.711075000000     0.449750000000     0.963400000000     0          
T        Si     0.607425000000     0.329250000000     0.519750000000     0          
T        Si     0.528650000000     0.863100000000     0.170800000000     0          
T        Si     0.526725000000     0.952000000000     0.214850000000     0          
T        Si     0.711075000000     0.800250000000     0.213400000000     0          
T        Si     0.607425000000     0.920750000000     0.269750000000     0          
T        Si     0.721350000000     0.636900000000     0.420800000000     0          
T        Si     0.723275000000     0.548000000000     0.464850000000     0          
T        Si     0.538925000000     0.699750000000     0.463400000000     0          
T        Si     0.642575000000     0.579250000000     0.019750000000     0          
T        Si     0.528650000000     0.886900000000     0.329200000000     0          
T        Si     0.526725000000     0.798000000000     0.285150000000     0          
T        Si     0.711075000000     0.949750000000     0.286600000000     0          
T        Si     0.607425000000     0.829250000000     0.230250000000     0          
T        Si     0.721350000000     0.613100000000     0.079200000000     0          
T        Si     0.723275000000     0.702000000000     0.035150000000     0          
T        Si     0.538925000000     0.550250000000     0.036600000000     0          
T        Si     0.642575000000     0.670750000000     0.480250000000     0          
T        Si     0.721350000000     0.636900000000     0.329200000000     0          
T        Si     0.723275000000     0.548000000000     0.285150000000     0          
T        Si     0.538925000000     0.699750000000     0.286600000000     0          
T        Si     0.642575000000     0.579250000000     0.230250000000     0          
T        Si     0.528650000000     0.863100000000     0.079200000000     0          
T        Si     0.526725000000     0.952000000000     0.035150000000     0          
T        Si     0.711075000000     0.800250000000     0.036600000000     0          
T        Si     0.607425000000     0.920750000000     0.480250000000     0          
T        Si     0.721350000000     0.613100000000     0.170800000000     0          
T        Si     0.723275000000     0.702000000000     0.214850000000     0          
T        Si     0.538925000000     0.550250000000     0.213400000000     0          
T        Si     0.642575000000     0.670750000000     0.269750000000     0          
T        Si     0.528650000000     0.886900000000     0.420800000000     0          
T        Si     0.526725000000     0.798000000000     0.464850000000     0          
T        Si     0.711075000000     0.949750000000     0.463400000000     0          
T        Si     0.607425000000     0.829250000000     0.019750000000     0          
T        Si     0.528650000000     0.863100000000     0.670800000000     0          
T        Si     0.526725000000     0.952000000000     0.714850000000     0          
T        Si     0.711075000000     0.800250000000     0.713400000000     0          
T        Si     0.607425000000     0.920750000000     0.769750000000     0          
T        Si     0.721350000000     0.636900000000     0.920800000000     0          
T        Si     0.723275000000     0.548000000000     0.964850000000     0          
T        Si     0.538925000000     0.699750000000     0.963400000000     0          
T        Si     0.642575000000     0.579250000000     0.519750000000     0          
T        Si     0.528650000000     0.886900000000     0.829200000000     0          
T        Si     0.526725000000     0.798000000000     0.785150000000     0          
T        Si     0.711075000000     0.949750000000     0.786600000000     0          
T        Si     0.607425000000     0.829250000000     0.730250000000     0          
T        Si     0.721350000000     0.613100000000     0.579200000000     0          
T        Si     0.723275000000     0.702000000000     0.535150000000     0          
T        Si     0.538925000000     0.550250000000     0.536600000000     0          
T        Si     0.642575000000     0.670750000000     0.980250000000     0          
T        Si     0.721350000000     0.636900000000     0.829200000000     0          
T        Si     0.723275000000     0.548000000000     0.785150000000     0          
T        Si     0.538925000000     0.699750000000     0.786600000000     0          
T        Si     0.642575000000     0.579250000000     0.730250000000     0          
T        Si     0.528650000000     0.863100000000     0.579200000000     0          
T        Si     0.526725000000     0.952000000000     0.535150000000     0          
T        Si     0.711075000000     0.800250000000     0.536600000000     0          
T        Si     0.607425000000     0.920750000000     0.980250000000     0          
T        Si     0.721350000000     0.613100000000     0.670800000000     0          
T        Si     0.723275000000     0.702000000000     0.714850000000     0          
T        Si     0.538925000000     0.550250000000     0.713400000000     0          
T        Si     0.642575000000     0.670750000000     0.769750000000     0          
T        Si     0.528650000000     0.886900000000     0.920800000000     0          
T        Si     0.526725000000     0.798000000000     0.964850000000     0          
T        Si     0.711075000000     0.949750000000     0.963400000000     0          
T        Si     0.607425000000     0.829250000000     0.519750000000     0          
T        Si     0.778650000000     0.363100000000     0.170800000000     0          
T        Si     0.776725000000     0.452000000000     0.214850000000     0          
T        Si     0.961075000000     0.300250000000     0.213400000000     0          
T        Si     0.857425000000     0.420750000000     0.269750000000     0          
T        Si     0.971350000000     0.136900000000     0.420800000000     0          
T        Si     0.973275000000     0.048000000000     0.464850000000     0          
T        Si     0.788925000000     0.199750000000     0.463400000000     0          
T        Si     0.892575000000     0.079250000000     0.019750000000     0          
T        Si     0.778650000000     0.386900000000     0.329200000000     0          
T        Si     0.776725000000     0.298000000000     0.285150000000     0          
T        Si     0.961075000000     0.449750000000     0.286600000000     0          
T        Si     0.857425000000     0.329250000000     0.230250000000     0          
T        Si     0.971350000000     0.113100000000     0.079200000000     0          
T        Si     0.973275000000     0.202000000000     0.035150000000     0          
T        Si     0.788925000000     0.050250000000     0.036600000000     0          
T        Si     0.892575000000     0.170750000000     0.480250000000     0          
T        Si     0.971350000000     0.136900000000     0.329200000000     0          
T        Si     0.973275000000     0.048000000000     0.285150000000     0          
T        Si     0.788925000000     0.199750000000     0.286600000000     0          
T        Si     0.892575000000     0.079250000000     0.230250000000     0          
T        Si     0.778650000000     0.363100000000     0.079200000000     0          
T        Si     0.776725000000     0.452000000000     0.035150000000     0          
T        Si     0.961075000000     0.300250000000     0.036600000000     0          
T        Si     0.857425000000     0.420750000000     0.480250000000     0          
T        Si     0.971350000000     0.113100000000     0.170800000000     0          
T        Si     0.973275000000     0.202000000000     0.214850000000     0          
T        Si     0.788925000000     0.050250000000     0.213400000000     0          
T        Si     0.892575000000     0.170750000000     0.269750000000     0          
T        Si     0.778650000000     0.386900000000     0.420800000000     0          
T        Si     0.776725000000     0.298000000000     0.464850000000     0          
T        Si     0.961075000000     0.449750000000     0.463400000000     0          
T        Si     0.857425000000     0.329250000000     0.019750000000     0          
T        Si     0.778650000000     0.363100000000     0.670800000000     0          
T        Si     0.776725000000     0.452000000000     0.714850000000     0          
T        Si     0.961075000000     0.300250000000     0.713400000000     0          
T        Si     0.857425000000     0.420750000000     0.769750000000     0          
T        Si     0.971350000000     0.136900000000     0.920800000000     0          
T        Si     0.973275000000     0.048000000000     0.964850000000     0          
T        Si     0.788925000000     0.199750000000     0.963400000000     0          
T        Si     0.892575000000     0.079250000000     0.519750000000     0          
T        Si     0.778650000000     0.386900000000     0.829200000000     0          
T        Si     0.776725000000     0.298000000000     0.785150000000     0          
T        Si     0.961075000000     0.449750000000     0.786600000000     0          
T        Si     0.857425000000     0.329250000000     0.730250000000     0          
T        Si     0.971350000000     0.113100000000     0.579200000000     0          
T        Si     0.973275000000     0.202000000000     0.535150000000     0          
T        Si     0.788925000000     0.050250000000     0.536600000000     0          
T        Si     0.892575000000     0.170750000000     0.980250000000     0          
T        Si     0.971350000000     0.136900000000     0.829200000000     0          
T        Si     0.973275000000     0.048000000000     0.785150000000     0          
T        Si     0.788925000000     0.199750000000     0.786600000000     0          
T        Si     0.892575000000     0.079250000000     0.730250000000     0          
T        Si     0.778650000000     0.363100000000     0.579200000000     0          
T        Si     0.776725000000     0.452000000000     0.535150000000     0          
T        Si     0.961075000000     0.300250000000     0.536600000000     0          
T        Si     0.857425000000     0.420750000000     0.980250000000     0          
T        Si     0.971350000000     0.113100000000     0.670800000000     0          
T        Si     0.973275000000     0.202000000000     0.714850000000     0          
T        Si     0.788925000000     0.050250000000     0.713400000000     0          
T        Si     0.892575000000     0.170750000000     0.769750000000     0          
T        Si     0.778650000000     0.386900000000     0.920800000000     0          
T        Si     0.776725000000     0.298000000000     0.964850000000     0          
T        Si     0.961075000000     0.449750000000     0.963400000000     0          
T        Si     0.857425000000     0.329250000000     0.519750000000     0          
T        Si     0.778650000000     0.863100000000     0.170800000000     0          
T        Si     0.776725000000     0.952000000000     0.214850000000     0          
T        Si     0.961075000000     0.800250000000     0.213400000000     0          
T        Si     0.857425000000     0.920750000000     0.269750000000     0          
T        Si     0.971350000000     0.636900000000     0.420800000000     0          
T        Si     0.973275000000     0.548000000000     0.464850000000     0          
T        Si     0.788925000000     0.699750000000     0.463400000000     0          
T        Si     0.892575000000     0.579250000000     0.019750000000     0          
T        Si     0.778650000000     0.886900000000     0.329200000000     0          
T        Si     0.776725000000     0.798000000000     0.285150000000     0          
T        Si     0.961075000000     0.949750000000     0.286600000000     0          
T        Si     0.857425000000     0.829250000000     0.230250000000     0          
T        Si     0.971350000000     0.613100000000     0.079200000000     0          
T        Si     0.973275000000     0.702000000000     0.035150000000     0          
T        Si     0.788925000000     0.550250000000     0.036600000000     0          
T        Si     0.892575000000     0.670750000000     0.480250000000     0          
T        Si     0.971350000000     0.636900000000     0.329200000000     0          
T        Si     0.973275000000     0.548000000000     0.285150000000     0          
T        Si     0.788925000000     0.699750000000     0.286600000000     0          
T        Si     0.892575000000     0.579250000000     0.230250000000     0          
T        Si     0.778650000000     0.863100000000     0.079200000000     0          
T        Si     0.776725000000     0.952000000000     0.035150000000     0          
T        Si     0.961075000000     0.800250000000     0.036600000000     0          
T        Si     0.857425000000     0.920750000000     0.480250000000     0          
T        Si     0.971350000000     0.613100000000     0.170800000000     0          
T        Si     0.973275000000     0.702000000000     0.214850000000     0          
T        Si     0.788925000000     0.550250000000     0.213400000000     0          
T        Si     0.892575000000     0.670750000000     0.269750000000     0          
T        Si     0.778650000000     0.886900000000     0.420800000000     0          
T        Si     0.776725000000     0.798000000000     0.464850000000     0          
T        Si     0.961075000000     0.949750000000     0.463400000000     0          
T        Si     0.857425000000     0.829250000000     0.019750000000     0          
T        Si     0.778650000000     0.863100000000     0.670800000000     0          
T        Si     0.776725000000     0.952000000000     0.714850000000     0          
T        Si     0.961075000000     0.800250000000     0.713400000000     0          
T        Si     0.857425000000     0.920750000000     0.769750000000     0          
T        Si     0.971350000000     0.636900000000     0.920800000000     0          
T        Si     0.973275000000     0.548000000000     0.964850000000     0          
T        Si     0.788925000000     0.699750000000     0.963400000000     0          
T        Si     0.892575000000     0.579250000000     0.519750000000     0          
T        Si     0.778650000000     0.886900000000     0.829200000000     0          
T        Si     0.776725000000     0.798000000000     0.785150000000     0          
T        Si     0.961075000000     0.949750000000     0.786600000000     0          
T        Si     0.857425000000     0.829250000000     0.730250000000     0          
T        Si     0.971350000000     0.613100000000     0.579200000000     0          
T        Si     0.973275000000     0.702000000000     0.535150000000     0          
T        Si     0.788925000000     0.550250000000     0.536600000000     0          
T        Si     0.892575000000     0.670750000000     0.980250000000     0          
T        Si     0.971350000000     0.636900000000     0.829200000000     0          
T        Si     0.973275000000     0.548000000000     0.785150000000     0          
T        Si     0.788925000000     0.699750000000     0.786600000000     0          
T        Si     0.892575000000     0.579250000000     0.730250000000     0          
T        Si     0.778650000000     0.863100000000     0.579200000000     0          
T        Si     0.776725000000     0.952000000000     0.535150000000     0          
T        Si     0.961075000000     0.800250000000     0.536600000000     0          
T        Si     0.857425000000     0.920750000000     0.980250000000     0          
T        Si     0.971350000000     0.613100000000     0.670800000000     0          
T        Si     0.973275000000     0.702000000000     0.714850000000     0          
T        Si     0.788925000000     0.550250000000     0.713400000000     0          
T        Si     0.892575000000     0.670750000000     0.769750000000     0          
T        Si     0.778650000000     0.886900000000     0.920800000000     0          
T        Si     0.776725000000     0.798000000000     0.964850000000     0          
T        Si     0.961075000000     0.949750000000     0.963400000000     0          
T        Si     0.857425000000     0.829250000000     0.519750000000     0          
O        O      0.229225000000     0.339450000000     0.184700000000     0          
O        O      0.073425000000     0.341100000000     0.193800000000     0          
O        O      0.026575000000     0.416200000000     0.179850000000     0          
O        O      0.035850000000     0.355250000000     0.125000000000     0          
O        O      0.020525000000     0.002150000000     0.197850000000     0          
O        O      0.077000000000     0.449000000000     0.238250000000     0          
O        O      0.232675000000     0.441050000000     0.243850000000     0          
O        O      0.152950000000     0.300200000000     0.215550000000     0          
O        O      0.126475000000     0.375000000000     0.250000000000     0          
O        O      0.020775000000     0.160550000000     0.434700000000     0          
O        O      0.176575000000     0.158900000000     0.443800000000     0          
O        O      0.223425000000     0.083800000000     0.429850000000     0          
O        O      0.214150000000     0.144750000000     0.375000000000     0          
O        O      0.229475000000     0.497850000000     0.447850000000     0          
O        O      0.173000000000     0.051000000000     0.488250000000     0          
O        O      0.017325000000     0.058950000000     0.493850000000     0          
O        O      0.097050000000     0.199800000000     0.465550000000     0          
O        O      0.123525000000     0.125000000000     0.000000000000     0          
O        O      0.229225000000     0.410550000000     0.315300000000     0          
O        O      0.073425000000     0.408900000000     0.306200000000     0          
O        O      0.026575000000     0.333800000000     0.320150000000     0          
O        O      0.035850000000     0.394750000000     0.375000000000     0          
O        O      0.020525000000     0.247850000000     0.302150000000     0          
O        O      0.077000000000     0.301000000000     0.261750000000     0          
O        O      0.232675000000     0.308950000000     0.256150000000     0          
O        O      0.152950000000     0.449800000000     0.284450000000     0          
O        O      0.020775000000     0.089450000000     0.065300000000     0          
O        O      0.176575000000     0.091100000000     0.056200000000     0          
O        O      0.223425000000     0.166200000000     0.070150000000     0          
O        O      0.214150000000     0.105250000000     0.125000000000     0          
O        O      0.229475000000     0.252150000000     0.052150000000     0          
O        O      0.173000000000     0.199000000000     0.011750000000     0          
O        O      0.017325000000     0.191050000000     0.006150000000     0          
O        O      0.097050000000     0.050200000000     0.034450000000     0          
O        O      0.020775000000     0.160550000000     0.315300000000     0          
O        O      0.176575000000     0.158900000000     0.306200000000     0          
O        O      0.223425000000     0.083800000000     0.320150000000     0          
O        O      0.229475000000     0.497850000000     0.302150000000     0          
O        O      0.173000000000     0.051000000000     0.261750000000     0          
O        O      0.017325000000     0.058950000000     0.256150000000     0          
O        O      0.097050000000     0.199800000000     0.284450000000     0          
O        O      0.123525000000     0.125000000000     0.250000000000     0          
O        O      0.229225000000     0.339450000000     0.065300000000     0          
O        O      0.073425000000     0.341100000000     0.056200000000     0          
O        O      0.026575000000     0.416200000000     0.070150000000     0          
O        O      0.020525000000     0.002150000000     0.052150000000     0          
O        O      0.077000000000     0.449000000000     0.011750000000     0          
O        O      0.232675000000     0.441050000000     0.006150000000     0          
O        O      0.152950000000     0.300200000000     0.034450000000     0          
O        O      0.126475000000     0.375000000000     0.000000000000     0          
O        O      0.020775000000     0.089450000000     0.184700000000     0          
O        O      0.176575000000     0.091100000000     0.193800000000     0          
O        O      0.223425000000     0.166200000000     0.179850000000     0          
O        O      0.229475000000     0.252150000000     0.197850000000     0          
O        O      0.173000000000     0.199000000000     0.238250000000     0          
O        O      0.017325000000     0.191050000000     0.243850000000     0          
O        O      0.097050000000     0.050200000000     0.215550000000     0          
O        O      0.229225000000     0.410550000000     0.434700000000     0          
O        O      0.073425000000     0.408900000000     0.443800000000     0          
O        O      0.026575000000     0.333800000000     0.429850000000     0          
O        O      0.020525000000     0.247850000000     0.447850000000     0          
O        O      0.077000000000     0.301000000000     0.488250000000     0          
O        O      0.232675000000     0.308950000000     0.493850000000     0          
O        O      0.152950000000     0.449800000000     0.465550000000     0          
O        O      0.229225000000     0.339450000000     0.684700000000     0          
O        O      0.073425000000     0.341100000000     0.693800000000     0          
O        O      0.026575000000     0.416200000000     0.679850000000     0          
O        O      0.035850000000     0.355250000000     0.625000000000     0          
O        O      0.020525000000     0.002150000000     0.697850000000     0          
O        O      0.077000000000     0.449000000000     0.738250000000     0          
O        O      0.232675000000     0.441050000000     0.743850000000     0          
O        O      0.152950000000     0.300200000000     0.715550000000     0          
O        O      0.126475000000     0.375000000000     0.750000000000     0          
O        O      0.020775000000     0.160550000000     0.934700000000     0          
O        O      0.176575000000     0.158900000000     0.943800000000     0          
O        O      0.223425000000     0.083800000000     0.929850000000     0          
O        O      0.214150000000     0.144750000000     0.875000000000     0          
O        O      0.229475000000     0.497850000000     0.947850000000     0          
O        O      0.173000000000     0.051000000000     0.988250000000     0          
O        O      0.017325000000     0.058950000000     0.993850000000     0          
O        O      0.097050000000     0.199800000000     0.965550000000     0          
O        O      0.123525000000     0.125000000000     0.500000000000     0          
O        O      0.229225000000     0.410550000000     0.815300000000     0          
O        O      0.073425000000     0.408900000000     0.806200000000     0          
O        O      0.026575000000     0.333800000000     0.820150000000     0          
O        O      0.035850000000     0.394750000000     0.875000000000     0          
O        O      0.020525000000     0.247850000000     0.802150000000     0          
O        O      0.077000000000     0.301000000000     0.761750000000     0          
O        O      0.232675000000     0.308950000000     0.756150000000     0          
O        O      0.152950000000     0.449800000000     0.784450000000     0          
O        O      0.020775000000     0.089450000000     0.565300000000     0          
O        O      0.176575000000     0.091100000000     0.556200000000     0          
O        O      0.223425000000     0.166200000000     0.570150000000     0          
O        O      0.214150000000     0.105250000000     0.625000000000     0          
O        O      0.229475000000     0.252150000000     0.552150000000     0          
O        O      0.173000000000     0.199000000000     0.511750000000     0          
O        O      0.017325000000     0.191050000000     0.506150000000     0          
O        O      0.097050000000     0.050200000000     0.534450000000     0          
O        O      0.020775000000     0.160550000000     0.815300000000     0          
O        O      0.176575000000     0.158900000000     0.806200000000     0          
O        O      0.223425000000     0.083800000000     0.820150000000     0          
O        O      0.229475000000     0.497850000000     0.802150000000     0          
O        O      0.173000000000     0.051000000000     0.761750000000     0          
O        O      0.017325000000     0.058950000000     0.756150000000     0          
O        O      0.097050000000     0.199800000000     0.784450000000     0          
O        O      0.123525000000     0.125000000000     0.750000000000     0          
O        O      0.229225000000     0.339450000000     0.565300000000     0          
O        O      0.073425000000     0.341100000000     0.556200000000     0          
O        O      0.026575000000     0.416200000000     0.570150000000     0          
O        O      0.020525000000     0.002150000000     0.552150000000     0          
O        O      0.077000000000     0.449000000000     0.511750000000     0          
O        O      0.232675000000     0.441050000000     0.506150000000     0          
O        O      0.152950000000     0.300200000000     0.534450000000     0          
O        O      0.126475000000     0.375000000000     0.500000000000     0          
O        O      0.020775000000     0.089450000000     0.684700000000     0          
O        O      0.176575000000     0.091100000000     0.693800000000     0          
O        O      0.223425000000     0.166200000000     0.679850000000     0          
O        O      0.229475000000     0.252150000000     0.697850000000     0          
O        O      0.173000000000     0.199000000000     0.738250000000     0          
O        O      0.017325000000     0.191050000000     0.743850000000     0          
O        O      0.097050000000     0.050200000000     0.715550000000     0          
O        O      0.229225000000     0.410550000000     0.934700000000     0          
O        O      0.073425000000     0.408900000000     0.943800000000     0          
O        O      0.026575000000     0.333800000000     0.929850000000     0          
O        O      0.020525000000     0.247850000000     0.947850000000     0          
O        O      0.077000000000     0.301000000000     0.988250000000     0          
O        O      0.232675000000     0.308950000000     0.993850000000     0          
O        O      0.152950000000     0.449800000000     0.965550000000     0          
O        O      0.229225000000     0.839450000000     0.184700000000     0          
O        O      0.073425000000     0.841100000000     0.193800000000     0          
O        O      0.026575000000     0.916200000000     0.179850000000     0          
O        O      0.035850000000     0.855250000000     0.125000000000     0          
O        O      0.020525000000     0.502150000000     0.197850000000     0          
O        O      0.077000000000     0.949000000000     0.238250000000     0          
O        O      0.232675000000     0.941050000000     0.243850000000     0          
O        O      0.152950000000     0.800200000000     0.215550000000     0          
O        O      0.126475000000     0.875000000000     0.250000000000     0          
O        O      0.020775000000     0.660550000000     0.434700000000     0          
O        O      0.176575000000     0.658900000000     0.443800000000     0          
O        O      0.223425000000     0.583800000000     0.429850000000     0          
O        O      0.214150000000     0.644750000000     0.375000000000     0          
O        O      0.229475000000     0.997850000000     0.447850000000     0          
O        O      0.173000000000     0.551000000000     0.488250000000     0          
O        O      0.017325000000     0.558950000000     0.493850000000     0          
O        O      0.097050000000     0.699800000000     0.465550000000     0          
O        O      0.123525000000     0.625000000000     0.000000000000     0          
O        O      0.229225000000     0.910550000000     0.315300000000     0          
O        O      0.073425000000     0.908900000000     0.306200000000     0          
O        O      0.026575000000     0.833800000000     0.320150000000     0          
O        O      0.035850000000     0.894750000000     0.375000000000     0          
O        O      0.020525000000     0.747850000000     0.302150000000     0          
O        O      0.077000000000     0.801000000000     0.261750000000     0          
O        O      0.232675000000     0.808950000000     0.256150000000     0          
O        O      0.152950000000     0.949800000000     0.284450000000     0          
O        O      0.020775000000     0.589450000000     0.065300000000     0          
O        O      0.176575000000     0.591100000000     0.056200000000     0          
O        O      0.223425000000     0.666200000000     0.070150000000     0          
O        O      0.214150000000     0.605250000000     0.125000000000     0          
O        O      0.229475000000     0.752150000000     0.052150000000     0          
O        O      0.173000000000     0.699000000000     0.011750000000     0          
O        O      0.017325000000     0.691050000000     0.006150000000     0          
O        O      0.097050000000     0.550200000000     0.034450000000     0          
O        O      0.020775000000     0.660550000000     0.315300000000     0          
O        O      0.176575000000     0.658900000000     0.306200000000     0          
O        O      0.223425000000     0.583800000000     0.320150000000     0          
O        O      0.229475000000     0.997850000000     0.302150000000     0          
O        O      0.173000000000     0.551000000000     0.261750000000     0          
O        O      0.017325000000     0.558950000000     0.256150000000     0          
O        O      0.097050000000     0.699800000000     0.284450000000     0          
O        O      0.123525000000     0.625000000000     0.250000000000     0          
O        O      0.229225000000     0.839450000000     0.065300000000     0          
O        O      0.073425000000     0.841100000000     0.056200000000     0          
O        O      0.026575000000     0.916200000000     0.070150000000     0          
O        O      0.020525000000     0.502150000000     0.052150000000     0          
O        O      0.077000000000     0.949000000000     0.011750000000     0          
O        O      0.232675000000     0.941050000000     0.006150000000     0          
O        O      0.152950000000     0.800200000000     0.034450000000     0          
O        O      0.126475000000     0.875000000000     0.000000000000     0          
O        O      0.020775000000     0.589450000000     0.184700000000     0          
O        O      0.176575000000     0.591100000000     0.193800000000     0          
O        O      0.223425000000     0.666200000000     0.179850000000     0          
O        O      0.229475000000     0.752150000000     0.197850000000     0          
O        O      0.173000000000     0.699000000000     0.238250000000     0          
O        O      0.017325000000     0.691050000000     0.243850000000     0          
O        O      0.097050000000     0.550200000000     0.215550000000     0          
O        O      0.229225000000     0.910550000000     0.434700000000     0          
O        O      0.073425000000     0.908900000000     0.443800000000     0          
O        O      0.026575000000     0.833800000000     0.429850000000     0          
O        O      0.020525000000     0.747850000000     0.447850000000     0          
O        O      0.077000000000     0.801000000000     0.488250000000     0          
O        O      0.232675000000     0.808950000000     0.493850000000     0          
O        O      0.152950000000     0.949800000000     0.465550000000     0          
O        O      0.229225000000     0.839450000000     0.684700000000     0          
O        O      0.073425000000     0.841100000000     0.693800000000     0          
O        O      0.026575000000     0.916200000000     0.679850000000     0          
O        O      0.035850000000     0.855250000000     0.625000000000     0          
O        O      0.020525000000     0.502150000000     0.697850000000     0          
O        O      0.077000000000     0.949000000000     0.738250000000     0          
O        O      0.232675000000     0.941050000000     0.743850000000     0          
O        O      0.152950000000     0.800200000000     0.715550000000     0          
O        O      0.126475000000     0.875000000000     0.750000000000     0          
O        O      0.020775000000     0.660550000000     0.934700000000     0          
O        O      0.176575000000     0.658900000000     0.943800000000     0          
O        O      0.223425000000     0.583800000000     0.929850000000     0          
O        O      0.214150000000     0.644750000000     0.875000000000     0          
O        O      0.229475000000     0.997850000000     0.947850000000     0          
O        O      0.173000000000     0.551000000000     0.988250000000     0          
O        O      0.017325000000     0.558950000000     0.993850000000     0          
O        O      0.097050000000     0.699800000000     0.965550000000     0          
O        O      0.123525000000     0.625000000000     0.500000000000     0          
O        O      0.229225000000     0.910550000000     0.815300000000     0          
O        O      0.073425000000     0.908900000000     0.806200000000     0          
O        O      0.026575000000     0.833800000000     0.820150000000     0          
O        O      0.035850000000     0.894750000000     0.875000000000     0          
O        O      0.020525000000     0.747850000000     0.802150000000     0          
O        O      0.077000000000     0.801000000000     0.761750000000     0          
O        O      0.232675000000     0.808950000000     0.756150000000     0          
O        O      0.152950000000     0.949800000000     0.784450000000     0          
O        O      0.020775000000     0.589450000000     0.565300000000     0          
O        O      0.176575000000     0.591100000000     0.556200000000     0          
O        O      0.223425000000     0.666200000000     0.570150000000     0          
O        O      0.214150000000     0.605250000000     0.625000000000     0          
O        O      0.229475000000     0.752150000000     0.552150000000     0          
O        O      0.173000000000     0.699000000000     0.511750000000     0          
O        O      0.017325000000     0.691050000000     0.506150000000     0          
O        O      0.097050000000     0.550200000000     0.534450000000     0          
O        O      0.020775000000     0.660550000000     0.815300000000     0          
O        O      0.176575000000     0.658900000000     0.806200000000     0          
O        O      0.223425000000     0.583800000000     0.820150000000     0          
O        O      0.229475000000     0.997850000000     0.802150000000     0          
O        O      0.173000000000     0.551000000000     0.761750000000     0          
O        O      0.017325000000     0.558950000000     0.756150000000     0          
O        O      0.097050000000     0.699800000000     0.784450000000     0          
O        O      0.123525000000     0.625000000000     0.750000000000     0          
O        O      0.229225000000     0.839450000000     0.565300000000     0          
O        O      0.073425000000     0.841100000000     0.556200000000     0          
O        O      0.026575000000     0.916200000000     0.570150000000     0          
O        O      0.020525000000     0.502150000000     0.552150000000     0          
O        O      0.077000000000     0.949000000000     0.511750000000     0          
O        O      0.232675000000     0.941050000000     0.506150000000     0          
O        O      0.152950000000     0.800200000000     0.534450000000     0          
O        O      0.126475000000     0.875000000000     0.500000000000     0          
O        O      0.020775000000     0.589450000000     0.684700000000     0          
O        O      0.176575000000     0.591100000000     0.693800000000     0          
O        O      0.223425000000     0.666200000000     0.679850000000     0          
O        O      0.229475000000     0.752150000000     0.697850000000     0          
O        O      0.173000000000     0.699000000000     0.738250000000     0          
O        O      0.017325000000     0.691050000000     0.743850000000     0          
O        O      0.097050000000     0.550200000000     0.715550000000     0          
O        O      0.229225000000     0.910550000000     0.934700000000     0          
O        O      0.073425000000     0.908900000000     0.943800000000     0          
O        O      0.026575000000     0.833800000000     0.929850000000     0          
O        O      0.020525000000     0.747850000000     0.947850000000     0          
O        O      0.077000000000     0.801000000000     0.988250000000     0          
O        O      0.232675000000     0.808950000000     0.993850000000     0          
O        O      0.152950000000     0.949800000000     0.965550000000     0          
O        O      0.479225000000     0.339450000000     0.184700000000     0          
O        O      0.323425000000     0.341100000000     0.193800000000     0          
O        O      0.276575000000     0.416200000000     0.179850000000     0          
O        O      0.285850000000     0.355250000000     0.125000000000     0          
O        O      0.270525000000     0.002150000000     0.197850000000     0          
O        O      0.327000000000     0.449000000000     0.238250000000     0          
O        O      0.482675000000     0.441050000000     0.243850000000     0          
O        O      0.402950000000     0.300200000000     0.215550000000     0          
O        O      0.376475000000     0.375000000000     0.250000000000     0          
O        O      0.270775000000     0.160550000000     0.434700000000     0          
O        O      0.426575000000     0.158900000000     0.443800000000     0          
O        O      0.473425000000     0.083800000000     0.429850000000     0          
O        O      0.464150000000     0.144750000000     0.375000000000     0          
O        O      0.479475000000     0.497850000000     0.447850000000     0          
O        O      0.423000000000     0.051000000000     0.488250000000     0          
O        O      0.267325000000     0.058950000000     0.493850000000     0          
O        O      0.347050000000     0.199800000000     0.465550000000     0          
O        O      0.373525000000     0.125000000000     0.000000000000     0          
O        O      0.479225000000     0.410550000000     0.315300000000     0          
O        O      0.323425000000     0.408900000000     0.306200000000     0          
O        O      0.276575000000     0.333800000000     0.320150000000     0          
O        O      0.285850000000     0.394750000000     0.375000000000     0          
O        O      0.270525000000     0.247850000000     0.302150000000     0          
O        O      0.327000000000     0.301000000000     0.261750000000     0          
O        O      0.482675000000     0.308950000000     0.256150000000     0          
O        O      0.402950000000     0.449800000000     0.284450000000     0          
O        O      0.270775000000     0.089450000000     0.065300000000     0          
O        O      0.426575000000     0.091100000000     0.056200000000     0          
O        O      0.473425000000     0.166200000000     0.070150000000     0          
O        O      0.464150000000     0.105250000000     0.125000000000     0          
O        O      0.479475000000     0.252150000000     0.052150000000     0          
O        O      0.423000000000     0.199000000000     0.011750000000     0          
O        O      0.267325000000     0.191050000000     0.006150000000     0          
O        O      0.347050000000     0.050200000000     0.034450000000     0          
O        O      0.270775000000     0.160550000000     0.315300000000     0          
O        O      0.426575000000     0.158900000000     0.306200000000     0          
O        O      0.473425000000     0.083800000000     0.320150000000     0          
O        O      0.479475000000     0.497850000000     0.302150000000     0          
O        O      0.423000000000     0.051000000000     0.261750000000     0          
O        O      0.267325000000     0.058950000000     0.256150000000     0          
O        O      0.347050000000     0.199800000000     0.284450000000     0          
O        O      0.373525000000     0.125000000000     0.250000000000     0          
O        O      0.479225000000     0.339450000000     0.065300000000     0          
O        O      0.323425000000     0.341100000000     0.056200000000     0          
O        O      0.276575000000     0.416200000000     0.070150000000     0          
O        O      0.270525000000     0.002150000000     0.052150000000     0          
O        O      0.327000000000     0.449000000000     0.011750000000     0          
O        O      0.482675000000     0.441050000000     0.006150000000     0          
O        O      0.402950000000     0.300200000000     0.034450000000     0          
O        O      0.376475000000     0.375000000000     0.000000000000     0          
O        O      0.270775000000     0.089450000000     0.184700000000     0          
O        O      0.426575000000     0.091100000000     0.193800000000     0          
O        O      0.473425000000     0.166200000000     0.179850000000     0          
O        O      0.479475000000     0.252150000000     0.197850000000     0          
O        O      0.423000000000     0.199000000000     0.238250000000     0          
O        O      0.267325000000     0.191050000000     0.243850000000     0          
O        O      0.347050000000     0.050200000000     0.215550000000     0          
O        O      0.479225000000     0.410550000000     0.434700000000     0          
O        O      0.323425000000     0.408900000000     0.443800000000     0          
O        O      0.276575000000     0.333800000000     0.429850000000     0          
O        O      0.270525000000     0.247850000000     0.447850000000     0          
O        O      0.327000000000     0.301000000000     0.488250000000     0          
O        O      0.482675000000     0.308950000000     0.493850000000     0          
O        O      0.402950000000     0.449800000000     0.465550000000     0          
O        O      0.479225000000     0.339450000000     0.684700000000     0          
O        O      0.323425000000     0.341100000000     0.693800000000     0          
O        O      0.276575000000     0.416200000000     0.679850000000     0          
O        O      0.285850000000     0.355250000000     0.625000000000     0          
O        O      0.270525000000     0.002150000000     0.697850000000     0          
O        O      0.327000000000     0.449000000000     0.738250000000     0          
O        O      0.482675000000     0.441050000000     0.743850000000     0          
O        O      0.402950000000     0.300200000000     0.715550000000     0          
O        O      0.376475000000     0.375000000000     0.750000000000     0          
O        O      0.270775000000     0.160550000000     0.934700000000     0          
O        O      0.426575000000     0.158900000000     0.943800000000     0          
O        O      0.473425000000     0.083800000000     0.929850000000     0          
O        O      0.464150000000     0.144750000000     0.875000000000     0          
O        O      0.479475000000     0.497850000000     0.947850000000     0          
O        O      0.423000000000     0.051000000000     0.988250000000     0          
O        O      0.267325000000     0.058950000000     0.993850000000     0          
O        O      0.347050000000     0.199800000000     0.965550000000     0          
O        O      0.373525000000     0.125000000000     0.500000000000     0          
O        O      0.479225000000     0.410550000000     0.815300000000     0          
O        O      0.323425000000     0.408900000000     0.806200000000     0          
O        O      0.276575000000     0.333800000000     0.820150000000     0          
O        O      0.285850000000     0.394750000000     0.875000000000     0          
O        O      0.270525000000     0.247850000000     0.802150000000     0          
O        O      0.327000000000     0.301000000000     0.761750000000     0          
O        O      0.482675000000     0.308950000000     0.756150000000     0          
O        O      0.402950000000     0.449800000000     0.784450000000     0          
O        O      0.270775000000     0.089450000000     0.565300000000     0          
O        O      0.426575000000     0.091100000000     0.556200000000     0          
O        O      0.473425000000     0.166200000000     0.570150000000     0          
O        O      0.464150000000     0.105250000000     0.625000000000     0          
O        O      0.479475000000     0.252150000000     0.552150000000     0          
O        O      0.423000000000     0.199000000000     0.511750000000     0          
O        O      0.267325000000     0.191050000000     0.506150000000     0          
O        O      0.347050000000     0.050200000000     0.534450000000     0          
O        O      0.270775000000     0.160550000000     0.815300000000     0          
O        O      0.426575000000     0.158900000000     0.806200000000     0          
O        O      0.473425000000     0.083800000000     0.820150000000     0          
O        O      0.479475000000     0.497850000000     0.802150000000     0          
O        O      0.423000000000     0.051000000000     0.761750000000     0          
O        O      0.267325000000     0.058950000000     0.756150000000     0          
O        O      0.347050000000     0.199800000000     0.784450000000     0          
O        O      0.373525000000     0.125000000000     0.750000000000     0          
O        O      0.479225000000     0.339450000000     0.565300000000     0          
O        O      0.323425000000     0.341100000000     0.556200000000     0          
O        O      0.276575000000     0.416200000000     0.570150000000     0          
O        O      0.270525000000     0.002150000000     0.552150000000     0          
O        O      0.327000000000     0.449000000000     0.511750000000     0          
O        O      0.482675000000     0.441050000000     0.506150000000     0          
O        O      0.402950000000     0.300200000000     0.534450000000     0          
O        O      0.376475000000     0.375000000000     0.500000000000     0          
O        O      0.270775000000     0.089450000000     0.684700000000     0          
O        O      0.426575000000     0.091100000000     0.693800000000     0          
O        O      0.473425000000     0.166200000000     0.679850000000     0          
O        O      0.479475000000     0.252150000000     0.697850000000     0          
O        O      0.423000000000     0.199000000000     0.738250000000     0          
O        O      0.267325000000     0.191050000000     0.743850000000     0          
O        O      0.347050000000     0.050200000000     0.715550000000     0          
O        O      0.479225000000     0.410550000000     0.934700000000     0          
O        O      0.323425000000     0.408900000000     0.943800000000     0          
O        O      0.276575000000     0.333800000000     0.929850000000     0          
O        O      0.270525000000     0.247850000000     0.947850000000     0          
O        O      0.327000000000     0.301000000000     0.988250000000     0          
O        O      0.482675000000     0.308950000000     0.993850000000     0          
O        O      0.402950000000     0.449800000000     0.965550000000     0          
O        O      0.479225000000     0.839450000000     0.184700000000     0          
O        O      0.323425000000     0.841100000000     0.193800000000     0          
O        O      0.276575000000     0.916200000000     0.179850000000     0          
O        O      0.285850000000     0.855250000000     0.125000000000     0          
O        O      0.270525000000     0.502150000000     0.197850000000     0          
O        O      0.327000000000     0.949000000000     0.238250000000     0          
O        O      0.482675000000     0.941050000000     0.243850000000     0          
O        O      0.402950000000     0.800200000000     0.215550000000     0          
O        O      0.376475000000     0.875000000000     0.250000000000     0          
O        O      0.270775000000     0.660550000000     0.434700000000     0          
O        O      0.426575000000     0.658900000000     0.443800000000     0          
O        O      0.473425000000     0.583800000000     0.429850000000     0          
O        O      0.464150000000     0.644750000000     0.375000000000     0          
O        O      0.479475000000     0.997850000000     0.447850000000     0          
O        O      0.423000000000     0.551000000000     0.488250000000     0          
O        O      0.267325000000     0.558950000000     0.493850000000     0          
O        O      0.347050000000     0.699800000000     0.465550000000     0          
O        O      0.373525000000     0.625000000000     0.000000000000     0          
O        O      0.479225000000     0.910550000000     0.315300000000     0          
O        O      0.323425000000     0.908900000000     0.306200000000     0          
O        O      0.276575000000     0.833800000000     0.320150000000     0          
O        O      0.285850000000     0.894750000000     0.375000000000     0          
O        O      0.270525000000     0.747850000000     0.302150000000     0          
O        O      0.327000000000     0.801000000000     0.261750000000     0          
O        O      0.482675000000     0.808950000000     0.256150000000     0          
O        O      0.402950000000     0.949800000000     0.284450000000     0          
O        O      0.270775000000     0.589450000000     0.065300000000     0          
O        O      0.426575000000     0.591100000000     0.056200000000     0          
O        O      0.473425000000     0.666200000000     0.070150000000     0          
O        O      0.464150000000     0.605250000000     0.125000000000     0          
O        O      0.479475000000     0.752150000000     0.052150000000     0          
O        O      0.423000000000     0.699000000000     0.011750000000     0          
O        O      0.267325000000     0.691050000000     0.006150000000     0          
O        O      0.347050000000     0.550200000000     0.034450000000     0          
O        O      0.270775000000     0.660550000000     0.315300000000     0          
O        O      0.426575000000     0.658900000000     0.306200000000     0          
O        O      0.473425000000     0.583800000000     0.320150000000     0          
O        O      0.479475000000     0.997850000000     0.302150000000     0          
O        O      0.423000000000     0.551000000000     0.261750000000     0          
O        O      0.267325000000     0.558950000000     0.256150000000     0          
O        O      0.347050000000     0.699800000000     0.284450000000     0          
O        O      0.373525000000     0.625000000000     0.250000000000     0          
O        O      0.479225000000     0.839450000000     0.065300000000     0          
O        O      0.323425000000     0.841100000000     0.056200000000     0          
O        O      0.276575000000     0.916200000000     0.070150000000     0          
O        O      0.270525000000     0.502150000000     0.052150000000     0          
O        O      0.327000000000     0.949000000000     0.011750000000     0          
O        O      0.482675000000     0.941050000000     0.006150000000     0          
O        O      0.402950000000     0.800200000000     0.034450000000     0          
O        O      0.376475000000     0.875000000000     0.000000000000     0          
O        O      0.270775000000     0.589450000000     0.184700000000     0          
O        O      0.426575000000     0.591100000000     0.193800000000     0          
O        O      0.473425000000     0.666200000000     0.179850000000     0          
O        O      0.479475000000     0.752150000000     0.197850000000     0          
O        O      0.423000000000     0.699000000000     0.238250000000     0          
O        O      0.267325000000     0.691050000000     0.243850000000     0          
O        O      0.347050000000     0.550200000000     0.215550000000     0          
O        O      0.479225000000     0.910550000000     0.434700000000     0          
O        O      0.323425000000     0.908900000000     0.443800000000     0          
O        O      0.276575000000     0.833800000000     0.429850000000     0          
O        O      0.270525000000     0.747850000000     0.447850000000     0          
O        O      0.327000000000     0.801000000000     0.488250000000     0          
O        O      0.482675000000     0.808950000000     0.493850000000     0          
O        O      0.402950000000     0.949800000000     0.465550000000     0          
O        O      0.479225000000     0.839450000000     0.684700000000     0          
O        O      0.323425000000     0.841100000000     0.693800000000     0          
O        O      0.276575000000     0.916200000000     0.679850000000     0          
O        O      0.285850000000     0.855250000000     0.625000000000     0          
O        O      0.270525000000     0.502150000000     0.697850000000     0          
O        O      0.327000000000     0.949000000000     0.738250000000     0          
O        O      0.482675000000     0.941050000000     0.743850000000     0          
O        O      0.402950000000     0.800200000000     0.715550000000     0          
O        O      0.376475000000     0.875000000000     0.750000000000     0          
O        O      0.270775000000     0.660550000000     0.934700000000     0          
O        O      0.426575000000     0.658900000000     0.943800000000     0          
O        O      0.473425000000     0.583800000000     0.929850000000     0          
O        O      0.464150000000     0.644750000000     0.875000000000     0          
O        O      0.479475000000     0.997850000000     0.947850000000     0          
O        O      0.423000000000     0.551000000000     0.988250000000     0          
O        O      0.267325000000     0.558950000000     0.993850000000     0          
O        O      0.347050000000     0.699800000000     0.965550000000     0          
O        O      0.373525000000     0.625000000000     0.500000000000     0          
O        O      0.479225000000     0.910550000000     0.815300000000     0          
O        O      0.323425000000     0.908900000000     0.806200000000     0          
O        O      0.276575000000     0.833800000000     0.820150000000     0          
O        O      0.285850000000     0.894750000000     0.875000000000     0          
O        O      0.270525000000     0.747850000000     0.802150000000     0          
O        O      0.327000000000     0.801000000000     0.761750000000     0          
O        O      0.482675000000     0.808950000000     0.756150000000     0          
O        O      0.402950000000     0.949800000000     0.784450000000     0          
O        O      0.270775000000     0.589450000000     0.565300000000     0          
O        O      0.426575000000     0.591100000000     0.556200000000     0          
O        O      0.473425000000     0.666200000000     0.570150000000     0          
O        O      0.464150000000     0.605250000000     0.625000000000     0          
O        O      0.479475000000     0.752150000000     0.552150000000     0          
O        O      0.423000000000     0.699000000000     0.511750000000     0          
O        O      0.267325000000     0.691050000000     0.506150000000     0          
O        O      0.347050000000     0.550200000000     0.534450000000     0          
O        O      0.270775000000     0.660550000000     0.815300000000     0          
O        O      0.426575000000     0.658900000000     0.806200000000     0          
O        O      0.473425000000     0.583800000000     0.820150000000     0          
O        O      0.479475000000     0.997850000000     0.802150000000     0          
O        O      0.423000000000     0.551000000000     0.761750000000     0          
O        O      0.267325000000     0.558950000000     0.756150000000     0          
O        O      0.347050000000     0.699800000000     0.784450000000     0          
O        O      0.373525000000     0.625000000000     0.750000000000     0          
O        O      0.479225000000     0.839450000000     0.565300000000     0          
O        O      0.323425000000     0.841100000000     0.556200000000     0          
O        O      0.276575000000     0.916200000000     0.570150000000     0          
O        O      0.270525000000     0.502150000000     0.552150000000     0          
O        O      0.327000000000     0.949000000000     0.511750000000     0          
O        O      0.482675000000     0.941050000000     0.506150000000     0          
O        O      0.402950000000     0.800200000000     0.534450000000     0          
O        O      0.376475000000     0.875000000000     0.500000000000     0          
O        O      0.270775000000     0.589450000000     0.684700000000     0          
O        O      0.426575000000     0.591100000000     0.693800000000     0          
O        O      0.473425000000     0.666200000000     0.679850000000     0          
O        O      0.479475000000     0.752150000000     0.697850000000     0          
O        O      0.423000000000     0.699000000000     0.738250000000     0          
O        O      0.267325000000     0.691050000000     0.743850000000     0          
O        O      0.347050000000     0.550200000000     0.715550000000     0          
O        O      0.479225000000     0.910550000000     0.934700000000     0          
O        O      0.323425000000     0.908900000000     0.943800000000     0          
O        O      0.276575000000     0.833800000000     0.929850000000     0          
O        O      0.270525000000     0.747850000000     0.947850000000     0          
O        O      0.327000000000     0.801000000000     0.988250000000     0          
O        O      0.482675000000     0.808950000000     0.993850000000     0          
O        O      0.402950000000     0.949800000000     0.965550000000     0          
O        O      0.729225000000     0.339450000000     0.184700000000     0          
O        O      0.573425000000     0.341100000000     0.193800000000     0          
O        O      0.526575000000     0.416200000000     0.179850000000     0          
O        O      0.535850000000     0.355250000000     0.125000000000     0          
O        O      0.520525000000     0.002150000000     0.197850000000     0          
O        O      0.577000000000     0.449000000000     0.238250000000     0          
O        O      0.732675000000     0.441050000000     0.243850000000     0          
O        O      0.652950000000     0.300200000000     0.215550000000     0          
O        O      0.626475000000     0.375000000000     0.250000000000     0          
O        O      0.520775000000     0.160550000000     0.434700000000     0          
O        O      0.676575000000     0.158900000000     0.443800000000     0          
O        O      0.723425000000     0.083800000000     0.429850000000     0          
O        O      0.714150000000     0.144750000000     0.375000000000     0          
O        O      0.729475000000     0.497850000000     0.447850000000     0          
O        O      0.673000000000     0.051000000000     0.488250000000     0          
O        O      0.517325000000     0.058950000000     0.493850000000     0          
O        O      0.597050000000     0.199800000000     0.465550000000     0          
O        O      0.623525000000     0.125000000000     0.000000000000     0          
O        O      0.729225000000     0.410550000000     0.315300000000     0          
O        O      0.573425000000     0.408900000000     0.306200000000     0          
O        O      0.526575000000     0.333800000000     0.320150000000     0          
O        O      0.535850000000     0.394750000000     0.375000000000     0          
O        O      0.520525000000     0.247850000000     0.302150000000     0          
O        O      0.577000000000     0.301000000000     0.261750000000     0          
O        O      0.732675000000     0.308950000000     0.256150000000     0          
O        O      0.652950000000     0.449800000000     0.284450000000     0          
O        O      0.520775000000     0.089450000000     0.065300000000     0          
O        O      0.676575000000     0.091100000000     0.056200000000     0          
O        O      0.723425000000     0.166200000000     0.070150000000     0          
O        O      0.714150000000     0.105250000000     0.125000000000     0          
O        O      0.729475000000     0.252150000000     0.052150000000     0          
O        O      0.673000000000     0.199000000000     0.011750000000     0          
O        O      0.517325000000     0.191050000000     0.006150000000     0          
O        O      0.597050000000     0.050200000000     0.034450000000     0          
O        O      0.520775000000     0.160550000000     0.315300000000     0          
O        O      0.676575000000     0.158900000000     0.306200000000     0          
O        O      0.723425000000     0.083800000000     0.320150000000     0          
O        O      0.729475000000     0.497850000000     0.302150000000     0          
O        O      0.673000000000     0.051000000000     0.261750000000     0          
O        O      0.517325000000     0.058950000000     0.256150000000     0          
O        O      0.597050000000     0.199800000000     0.284450000000     0          
O        O      0.623525000000     0.125000000000     0.250000000000     0          
O        O      0.729225000000     0.339450000000     0.065300000000     0          
O        O      0.573425000000     0.341100000000     0.056200000000     0          
O        O      0.526575000000     0.416200000000     0.070150000000     0          
O        O      0.520525000000     0.002150000000     0.052150000000     0          
O        O      0.577000000000     0.449000000000     0.011750000000     0          
O        O      0.732675000000     0.441050000000     0.006150000000     0          
O        O      0.652950000000     0.300200000000     0.034450000000     0          
O        O      0.626475000000     0.375000000000     0.000000000000     0          
O        O      0.520775000000     0.089450000000     0.184700000000     0          
O        O      0.676575000000     0.091100000000     0.193800000000     0          
O        O      0.723425000000     0.166200000000     0.179850000000     0          
O        O      0.729475000000     0.252150000000     0.197850000000     0          
O        O      0.673000000000     0.199000000000     0.238250000000     0          
O        O      0.517325000000     0.191050000000     0.243850000000     0          
O        O      0.597050000000     0.050200000000     0.215550000000     0          
O        O      0.729225000000     0.410550000000     0.434700000000     0          
O        O      0.573425000000     0.408900000000     0.443800000000     0          
O        O      0.526575000000     0.333800000000     0.429850000000     0          
O        O      0.520525000000     0.247850000000     0.447850000000     0          
O        O      0.577000000000     0.301000000000     0.488250000000     0          
O        O      0.732675000000     0.308950000000     0.493850000000     0          
O        O      0.652950000000     0.449800000000     0.465550000000     0          
O        O      0.729225000000     0.339450000000     0.684700000000     0          
O        O      0.573425000000     0.341100000000     0.693800000000     0          
O        O      0.526575000000     0.416200000000     0.679850000000     0          
O        O      0.535850000000     0.355250000000     0.625000000000     0          
O        O      0.520525000000     0.002150000000     0.697850000000     0          
O        O      0.577000000000     0.449000000000     0.738250000000     0          
O        O      0.732675000000     0.441050000000     0.743850000000     0          
O        O      0.652950000000     0.300200000000     0.715550000000     0          
O        O      0.626475000000     0.375000000000     0.750000000000     0          
O        O      0.520775000000     0.160550000000     0.934700000000     0          
O        O      0.676575000000     0.158900000000     0.943800000000     0          
O        O      0.723425000000     0.083800000000     0.929850000000     0          
O        O      0.714150000000     0.144750000000     0.875000000000     0          
O        O      0.729475000000     0.497850000000     0.947850000000     0          
O        O      0.673000000000     0.051000000000     0.988250000000     0          
O        O      0.517325000000     0.058950000000     0.993850000000     0          
O        O      0.597050000000     0.199800000000     0.965550000000     0          
O        O      0.623525000000     0.125000000000     0.500000000000     0          
O        O      0.729225000000     0.410550000000     0.815300000000     0          
O        O      0.573425000000     0.408900000000     0.806200000000     0          
O        O      0.526575000000     0.333800000000     0.820150000000     0          
O        O      0.535850000000     0.394750000000     0.875000000000     0          
O        O      0.520525000000     0.247850000000     0.802150000000     0          
O        O      0.577000000000     0.301000000000     0.761750000000     0          
O        O      0.732675000000     0.308950000000     0.756150000000     0          
O        O      0.652950000000     0.449800000000     0.784450000000     0          
O        O      0.520775000000     0.089450000000     0.565300000000     0          
O        O      0.676575000000     0.091100000000     0.556200000000     0          
O        O      0.723425000000     0.166200000000     0.570150000000     0          
O        O      0.714150000000     0.105250000000     0.625000000000     0          
O        O      0.729475000000     0.252150000000     0.552150000000     0          
O        O      0.673000000000     0.199000000000     0.511750000000     0          
O        O      0.517325000000     0.191050000000     0.506150000000     0          
O        O      0.597050000000     0.050200000000     0.534450000000     0          
O        O      0.520775000000     0.160550000000     0.815300000000     0          
O        O      0.676575000000     0.158900000000     0.806200000000     0          
O        O      0.723425000000     0.083800000000     0.820150000000     0          
O        O      0.729475000000     0.497850000000     0.802150000000     0          
O        O      0.673000000000     0.051000000000     0.761750000000     0          
O        O      0.517325000000     0.058950000000     0.756150000000     0          
O        O      0.597050000000     0.199800000000     0.784450000000     0          
O        O      0.623525000000     0.125000000000     0.750000000000     0          
O        O      0.729225000000     0.339450000000     0.565300000000     0          
O        O      0.573425000000     0.341100000000     0.556200000000     0          
O        O      0.526575000000     0.416200000000     0.570150000000     0          
O        O      0.520525000000     0.002150000000     0.552150000000     0          
O        O      0.577000000000     0.449000000000     0.511750000000     0          
O        O      0.732675000000     0.441050000000     0.506150000000     0          
O        O      0.652950000000     0.300200000000     0.534450000000     0          
O        O      0.626475000000     0.375000000000     0.500000000000     0          
O        O      0.520775000000     0.089450000000     0.684700000000     0          
O        O      0.676575000000     0.091100000000     0.693800000000     0          
O        O      0.723425000000     0.166200000000     0.679850000000     0          
O        O      0.729475000000     0.252150000000     0.697850000000     0          
O        O      0.673000000000     0.199000000000     0.738250000000     0          
O        O      0.517325000000     0.191050000000     0.743850000000     0          
O        O      0.597050000000     0.050200000000     0.715550000000     0          
O        O      0.729225000000     0.410550000000     0.934700000000     0          
O        O      0.573425000000     0.408900000000     0.943800000000     0          
O        O      0.526575000000     0.333800000000     0.929850000000     0          
O        O      0.520525000000     0.247850000000     0.947850000000     0          
O        O      0.577000000000     0.301000000000     0.988250000000     0          
O        O      0.732675000000     0.308950000000     0.993850000000     0          
O        O      0.652950000000     0.449800000000     0.965550000000     0          
O        O      0.729225000000     0.839450000000     0.184700000000     0          
O        O      0.573425000000     0.841100000000     0.193800000000     0          
O        O      0.526575000000     0.916200000000     0.179850000000     0          
O        O      0.535850000000     0.855250000000     0.125000000000     0          
O        O      0.520525000000     0.502150000000     0.197850000000     0          
O        O      0.577000000000     0.949000000000     0.238250000000     0          
O        O      0.732675000000     0.941050000000     0.243850000000     0          
O        O      0.652950000000     0.800200000000     0.215550000000     0          
O        O      0.626475000000     0.875000000000     0.250000000000     0          
O        O      0.520775000000     0.660550000000     0.434700000000     0          
O        O      0.676575000000     0.658900000000     0.443800000000     0          
O        O      0.723425000000     0.583800000000     0.429850000000     0          
O        O      0.714150000000     0.644750000000     0.375000000000     0          
O        O      0.729475000000     0.997850000000     0.447850000000     0          
O        O      0.673000000000     0.551000000000     0.488250000000     0          
O        O      0.517325000000     0.558950000000     0.493850000000     0          
O        O      0.597050000000     0.699800000000     0.465550000000     0          
O        O      0.623525000000     0.625000000000     0.000000000000     0          
O        O      0.729225000000     0.910550000000     0.315300000000     0          
O        O      0.573425000000     0.908900000000     0.306200000000     0          
O        O      0.526575000000     0.833800000000     0.320150000000     0          
O        O      0.535850000000     0.894750000000     0.375000000000     0          
O        O      0.520525000000     0.747850000000     0.302150000000     0          
O        O      0.577000000000     0.801000000000     0.261750000000     0          
O        O      0.732675000000     0.808950000000     0.256150000000     0          
O        O      0.652950000000     0.949800000000     0.284450000000     0          
O        O      0.520775000000     0.589450000000     0.065300000000     0          
O        O      0.676575000000     0.591100000000     0.056200000000     0          
O        O      0.723425000000     0.666200000000     0.070150000000     0          
O        O      0.714150000000     0.605250000000     0.125000000000     0          
O        O      0.729475000000     0.752150000000     0.052150000000     0          
O        O      0.673000000000     0.699000000000     0.011750000000     0          
O        O      0.517325000000     0.691050000000     0.006150000000     0          
O        O      0.597050000000     0.550200000000     0.034450000000     0          
O        O      0.520775000000     0.660550000000     0.315300000000     0          
O        O      0.676575000000     0.658900000000     0.306200000000     0          
O        O      0.723425000000     0.583800000000     0.320150000000     0          
O        O      0.729475000000     0.997850000000     0.302150000000     0          
O        O      0.673000000000     0.551000000000     0.261750000000     0          
O        O      0.517325000000     0.558950000000     0.256150000000     0          
O        O      0.597050000000     0.699800000000     0.284450000000     0          
O        O      0.623525000000     0.625000000000     0.250000000000     0          
O        O      0.729225000000     0.839450000000     0.065300000000     0          
O        O      0.573425000000     0.841100000000     0.056200000000     0          
O        O      0.526575000000     0.916200000000     0.070150000000     0          
O        O      0.520525000000     0.502150000000     0.052150000000     0          
O        O      0.577000000000     0.949000000000     0.011750000000     0          
O        O      0.732675000000     0.941050000000     0.006150000000     0          
O        O      0.652950000000     0.800200000000     0.034450000000     0          
O        O      0.626475000000     0.875000000000     0.000000000000     0          
O        O      0.520775000000     0.589450000000     0.184700000000     0          
O        O      0.676575000000     0.591100000000     0.193800000000     0          
O        O      0.723425000000     0.666200000000     0.179850000000     0          
O        O      0.729475000000     0.752150000000     0.197850000000     0          
O        O      0.673000000000     0.699000000000     0.238250000000     0          
O        O      0.517325000000     0.691050000000     0.243850000000     0          
O        O      0.597050000000     0.550200000000     0.215550000000     0          
O        O      0.729225000000     0.910550000000     0.434700000000     0          
O        O      0.573425000000     0.908900000000     0.443800000000     0          
O        O      0.526575000000     0.833800000000     0.429850000000     0          
O        O      0.520525000000     0.747850000000     0.447850000000     0          
O        O      0.577000000000     0.801000000000     0.488250000000     0          
O        O      0.732675000000     0.808950000000     0.493850000000     0          
O        O      0.652950000000     0.949800000000     0.465550000000     0          
O        O      0.729225000000     0.839450000000     0.684700000000     0          
O        O      0.573425000000     0.841100000000     0.693800000000     0          
O        O      0.526575000000     0.916200000000     0.679850000000     0          
O        O      0.535850000000     0.855250000000     0.625000000000     0          
O        O      0.520525000000     0.502150000000     0.697850000000     0          
O        O      0.577000000000     0.949000000000     0.738250000000     0          
O        O      0.732675000000     0.941050000000     0.743850000000     0          
O        O      0.652950000000     0.800200000000     0.715550000000     0          
O        O      0.626475000000     0.875000000000     0.750000000000     0          
O        O      0.520775000000     0.660550000000     0.934700000000     0          
O        O      0.676575000000     0.658900000000     0.943800000000     0          
O        O      0.723425000000     0.583800000000     0.929850000000     0          
O        O      0.714150000000     0.644750000000     0.875000000000     0          
O        O      0.729475000000     0.997850000000     0.947850000000     0          
O        O      0.673000000000     0.551000000000     0.988250000000     0          
O        O      0.517325000000     0.558950000000     0.993850000000     0          
O        O      0.597050000000     0.699800000000     0.965550000000     0          
O        O      0.623525000000     0.625000000000     0.500000000000     0          
O        O      0.729225000000     0.910550000000     0.815300000000     0          
O        O      0.573425000000     0.908900000000     0.806200000000     0          
O        O      0.526575000000     0.833800000000     0.820150000000     0          
O        O      0.535850000000     0.894750000000     0.875000000000     0          
O        O      0.520525000000     0.747850000000     0.802150000000     0          
O        O      0.577000000000     0.801000000000     0.761750000000     0          
O        O      0.732675000000     0.808950000000     0.756150000000     0          
O        O      0.652950000000     0.949800000000     0.784450000000     0          
O        O      0.520775000000     0.589450000000     0.565300000000     0          
O        O      0.676575000000     0.591100000000     0.556200000000     0          
O        O      0.723425000000     0.666200000000     0.570150000000     0          
O        O      0.714150000000     0.605250000000     0.625000000000     0          
O        O      0.729475000000     0.752150000000     0.552150000000     0          
O        O      0.673000000000     0.699000000000     0.511750000000     0          
O        O      0.517325000000     0.691050000000     0.506150000000     0          
O        O      0.597050000000     0.550200000000     0.534450000000     0          
O        O      0.520775000000     0.660550000000     0.815300000000     0          
O        O      0.676575000000     0.658900000000     0.806200000000     0          
O        O      0.723425000000     0.583800000000     0.820150000000     0          
O        O      0.729475000000     0.997850000000     0.802150000000     0          
O        O      0.673000000000     0.551000000000     0.761750000000     0          
O        O      0.517325000000     0.558950000000     0.756150000000     0          
O        O      0.597050000000     0.699800000000     0.784450000000     0          
O        O      0.623525000000     0.625000000000     0.750000000000     0          
O        O      0.729225000000     0.839450000000     0.565300000000     0          
O        O      0.573425000000     0.841100000000     0.556200000000     0          
O        O      0.526575000000     0.916200000000     0.570150000000     0          
O        O      0.520525000000     0.502150000000     0.552150000000     0          
O        O      0.577000000000     0.949000000000     0.511750000000     0          
O        O      0.732675000000     0.941050000000     0.506150000000     0          
O        O      0.652950000000     0.800200000000     0.534450000000     0          
O        O      0.626475000000     0.875000000000     0.500000000000     0          
O        O      0.520775000000     0.589450000000     0.684700000000     0          
O        O      0.676575000000     0.591100000000     0.693800000000     0          
O        O      0.723425000000     0.666200000000     0.679850000000     0          
O        O      0.729475000000     0.752150000000     0.697850000000     0          
O        O      0.673000000000     0.699000000000     0.738250000000     0          
O        O      0.517325000000     0.691050000000     0.743850000000     0          
O        O      0.597050000000     0.550200000000     0.715550000000     0          
O        O      0.729225000000     0.910550000000     0.934700000000     0          
O        O      0.573425000000     0.908900000000     0.943800000000     0          
O        O      0.526575000000     0.833800000000     0.929850000000     0          
O        O      0.520525000000     0.747850000000     0.947850000000     0          
O        O      0.577000000000     0.801000000000     0.988250000000     0          
O        O      0.732675000000     0.808950000000     0.993850000000     0          
O        O      0.652950000000     0.949800000000     0.965550000000     0          
O        O      0.979225000000     0.339450000000     0.184700000000     0          
O        O      0.823425000000     0.341100000000     0.193800000000     0          
O        O      0.776575000000     0.416200000000     0.179850000000     0          
O        O      0.785850000000     0.355250000000     0.125000000000     0          
O        O      0.770525000000     0.002150000000     0.197850000000     0          
O        O      0.827000000000     0.449000000000     0.238250000000     0          
O        O      0.982675000000     0.441050000000     0.243850000000     0          
O        O      0.902950000000     0.300200000000     0.215550000000     0          
O        O      0.876475000000     0.375000000000     0.250000000000     0          
O        O      0.770775000000     0.160550000000     0.434700000000     0          
O        O      0.926575000000     0.158900000000     0.443800000000     0          
O        O      0.973425000000     0.083800000000     0.429850000000     0          
O        O      0.964150000000     0.144750000000     0.375000000000     0          
O        O      0.979475000000     0.497850000000     0.447850000000     0          
O        O      0.923000000000     0.051000000000     0.488250000000     0          
O        O      0.767325000000     0.058950000000     0.493850000000     0          
O        O      0.847050000000     0.199800000000     0.465550000000     0          
O        O      0.873525000000     0.125000000000     0.000000000000     0          
O        O      0.979225000000     0.410550000000     0.315300000000     0          
O        O      0.823425000000     0.408900000000     0.306200000000     0          
O        O      0.776575000000     0.333800000000     0.320150000000     0          
O        O      0.785850000000     0.394750000000     0.375000000000     0          
O        O      0.770525000000     0.247850000000     0.302150000000     0          
O        O      0.827000000000     0.301000000000     0.261750000000     0          
O        O      0.982675000000     0.308950000000     0.256150000000     0          
O        O      0.902950000000     0.449800000000     0.284450000000     0          
O        O      0.770775000000     0.089450000000     0.065300000000     0          
O        O      0.926575000000     0.091100000000     0.056200000000     0          
O        O      0.973425000000     0.166200000000     0.070150000000     0          
O        O      0.964150000000     0.105250000000     0.125000000000     0          
O        O      0.979475000000     0.252150000000     0.052150000000     0          
O        O      0.923000000000     0.199000000000     0.011750000000     0          
O        O      0.767325000000     0.191050000000     0.006150000000     0          
O        O      0.847050000000     0.050200000000     0.034450000000     0          
O        O      0.770775000000     0.160550000000     0.315300000000     0          
O        O      0.926575000000     0.158900000000     0.306200000000     0          
O        O      0.973425000000     0.083800000000     0.320150000000     0          
O        O      0.979475000000     0.497850000000     0.302150000000     0          
O        O      0.923000000000     0.051000000000     0.261750000000     0          
O        O      0.767325000000     0.058950000000     0.256150000000     0          
O        O      0.847050000000     0.199800000000     0.284450000000     0          
O        O      0.873525000000     0.125000000000     0.250000000000     0          
O        O      0.979225000000     0.339450000000     0.065300000000     0          
O        O      0.823425000000     0.341100000000     0.056200000000     0          
O        O      0.776575000000     0.416200000000     0.070150000000     0          
O        O      0.770525000000     0.002150000000     0.052150000000     0          
O        O      0.827000000000     0.449000000000     0.011750000000     0          
O        O      0.982675000000     0.441050000000     0.006150000000     0          
O        O      0.902950000000     0.300200000000     0.034450000000     0          
O        O      0.876475000000     0.375000000000     0.000000000000     0          
O        O      0.770775000000     0.089450000000     0.184700000000     0          
O        O      0.926575000000     0.091100000000     0.193800000000     0          
O        O      0.973425000000     0.166200000000     0.179850000000     0          
O        O      0.979475000000     0.252150000000     0.197850000000     0          
O        O      0.923000000000     0.199000000000     0.238250000000     0          
O        O      0.767325000000     0.191050000000     0.243850000000     0          
O        O      0.847050000000     0.050200000000     0.215550000000     0          
O        O      0.979225000000     0.410550000000     0.434700000000     0          
O        O      0.823425000000     0.408900000000     0.443800000000     0          
O        O      0.776575000000     0.333800000000     0.429850000000     0          
O        O      0.770525000000     0.247850000000     0.447850000000     0          
O        O      0.827000000000     0.301000000000     0.488250000000     0          
O        O      0.982675000000     0.308950000000     0.493850000000     0          
O        O      0.902950000000     0.449800000000     0.465550000000     0          
O        O      0.979225000000     0.339450000000     0.684700000000     0          
O        O      0.823425000000     0.341100000000     0.693800000000     0          
O        O      0.776575000000     0.416200000000     0.679850000000     0          
O        O      0.785850000000     0.355250000000     0.625000000000     0          
O        O      0.770525000000     0.002150000000     0.697850000000     0          
O        O      0.827000000000     0.449000000000     0.738250000000     0          
O        O      0.982675000000     0.441050000000     0.743850000000     0          
O        O      0.902950000000     0.300200000000     0.715550000000     0          
O        O      0.876475000000     0.375000000000     0.750000000000     0          
O        O      0.770775000000     0.160550000000     0.934700000000     0          
O        O      0.926575000000     0.158900000000     0.943800000000     0          
O        O      0.973425000000     0.083800000000     0.929850000000     0          
O        O      0.964150000000     0.144750000000     0.875000000000     0          
O        O      0.979475000000     0.497850000000     0.947850000000     0          
O        O      0.923000000000     0.051000000000     0.988250000000     0          
O        O      0.767325000000     0.058950000000     0.993850000000     0          
O        O      0.847050000000     0.199800000000     0.965550000000     0          
O        O      0.873525000000     0.125000000000     0.500000000000     0          
O        O      0.979225000000     0.410550000000     0.815300000000     0          
O        O      0.823425000000     0.408900000000     0.806200000000     0          
O        O      0.776575000000     0.333800000000     0.820150000000     0          
O        O      0.785850000000     0.394750000000     0.875000000000     0          
O        O      0.770525000000     0.247850000000     0.802150000000     0          
O        O      0.827000000000     0.301000000000     0.761750000000     0          
O        O      0.982675000000     0.308950000000     0.756150000000     0          
O        O      0.902950000000     0.449800000000     0.784450000000     0          
O        O      0.770775000000     0.089450000000     0.565300000000     0          
O        O      0.926575000000     0.091100000000     0.556200000000     0          
O        O      0.973425000000     0.166200000000     0.570150000000     0          
O        O      0.964150000000     0.105250000000     0.625000000000     0          
O        O      0.979475000000     0.252150000000     0.552150000000     0          
O        O      0.923000000000     0.199000000000     0.511750000000     0          
O        O      0.767325000000     0.191050000000     0.506150000000     0          
O        O      0.847050000000     0.050200000000     0.534450000000     0          
O        O      0.770775000000     0.160550000000     0.815300000000     0          
O        O      0.926575000000     0.158900000000     0.806200000000     0          
O        O      0.973425000000     0.083800000000     0.820150000000     0          
O        O      0.979475000000     0.497850000000     0.802150000000     0          
O        O      0.923000000000     0.051000000000     0.761750000000     0          
O        O      0.767325000000     0.058950000000     0.756150000000     0          
O        O      0.847050000000     0.199800000000     0.784450000000     0          
O        O      0.873525000000     0.125000000000     0.750000000000     0          
O        O      0.979225000000     0.339450000000     0.565300000000     0          
O        O      0.823425000000     0.341100000000     0.556200000000     0          
O        O      0.776575000000     0.416200000000     0.570150000000     0          
O        O      0.770525000000     0.002150000000     0.552150000000     0          
O        O      0.827000000000     0.449000000000     0.511750000000     0          
O        O      0.982675000000     0.441050000000     0.506150000000     0          
O        O      0.902950000000     0.300200000000     0.534450000000     0          
O        O      0.876475000000     0.375000000000     0.500000000000     0          
O        O      0.770775000000     0.089450000000     0.684700000000     0          
O        O      0.926575000000     0.091100000000     0.693800000000     0          
O        O      0.973425000000     0.166200000000     0.679850000000     0          
O        O      0.979475000000     0.252150000000     0.697850000000     0          
O        O      0.923000000000     0.199000000000     0.738250000000     0          
O        O      0.767325000000     0.191050000000     0.743850000000     0          
O        O      0.847050000000     0.050200000000     0.715550000000     0          
O        O      0.979225000000     0.410550000000     0.934700000000     0          
O        O      0.823425000000     0.408900000000     0.943800000000     0          
O        O      0.776575000000     0.333800000000     0.929850000000     0          
O        O      0.770525000000     0.247850000000     0.947850000000     0          
O        O      0.827000000000     0.301000000000     0.988250000000     0          
O        O      0.982675000000     0.308950000000     0.993850000000     0          
O        O      0.902950000000     0.449800000000     0.965550000000     0          
O        O      0.979225000000     0.839450000000     0.184700000000     0          
O        O      0.823425000000     0.841100000000     0.193800000000     0          
O        O      0.776575000000     0.916200000000     0.179850000000     0          
O        O      0.785850000000     0.855250000000     0.125000000000     0          
O        O      0.770525000000     0.502150000000     0.197850000000     0          
O        O      0.827000000000     0.949000000000     0.238250000000     0          
O        O      0.982675000000     0.941050000000     0.243850000000     0          
O        O      0.902950000000     0.800200000000     0.215550000000     0          
O        O      0.876475000000     0.875000000000     0.250000000000     0          
O        O      0.770775000000     0.660550000000     0.434700000000     0          
O        O      0.926575000000     0.658900000000     0.443800000000     0          
O        O      0.973425000000     0.583800000000     0.429850000000     0          
O        O      0.964150000000     0.644750000000     0.375000000000     0          
O        O      0.979475000000     0.997850000000     0.447850000000     0          
O        O      0.923000000000     0.551000000000     0.488250000000     0          
O        O      0.767325000000     0.558950000000     0.493850000000     0          
O        O      0.847050000000     0.699800000000     0.465550000000     0          
O        O      0.873525000000     0.625000000000     0.000000000000     0          
O        O      0.979225000000     0.910550000000     0.315300000000     0          
O        O      0.823425000000     0.908900000000     0.306200000000     0          
O        O      0.776575000000     0.833800000000     0.320150000000     0          
O        O      0.785850000000     0.894750000000     0.375000000000     0          
O        O      0.770525000000     0.747850000000     0.302150000000     0          
O        O      0.827000000000     0.801000000000     0.261750000000     0          
O        O      0.982675000000     0.808950000000     0.256150000000     0          
O        O      0.902950000000     0.949800000000     0.284450000000     0          
O        O      0.770775000000     0.589450000000     0.065300000000     0          
O        O      0.926575000000     0.591100000000     0.056200000000     0          
O        O      0.973425000000     0.666200000000     0.070150000000     0          
O        O      0.964150000000     0.605250000000     0.125000000000     0          
O        O      0.979475000000     0.752150000000     0.052150000000     0          
O        O      0.923000000000     0.699000000000     0.011750000000     0          
O        O      0.767325000000     0.691050000000     0.006150000000     0          
O        O      0.847050000000     0.550200000000     0.034450000000     0          
O        O      0.770775000000     0.660550000000     0.315300000000     0          
O        O      0.926575000000     0.658900000000     0.306200000000     0          
O        O      0.973425000000     0.583800000000     0.320150000000     0          
O        O      0.979475000000     0.997850000000     0.302150000000     0          
O        O      0.923000000000     0.551000000000     0.261750000000     0          
O        O      0.767325000000     0.558950000000     0.256150000000     0          
O        O      0.847050000000     0.699800000000     0.284450000000     0          
O        O      0.873525000000     0.625000000000     0.250000000000     0          
O        O      0.979225000000     0.839450000000     0.065300000000     0          
O        O      0.823425000000     0.841100000000     0.056200000000     0          
O        O      0.776575000000     0.916200000000     0.070150000000     0          
O        O      0.770525000000     0.502150000000     0.052150000000     0          
O        O      0.827000000000     0.949000000000     0.011750000000     0          
O        O      0.982675000000     0.941050000000     0.006150000000     0          
O        O      0.902950000000     0.800200000000     0.034450000000     0          
O        O      0.876475000000     0.875000000000     0.000000000000     0          
O        O      0.770775000000     0.589450000000     0.184700000000     0          
O        O      0.926575000000     0.591100000000     0.193800000000     0          
O        O      0.973425000000     0.666200000000     0.179850000000     0          
O        O      0.979475000000     0.752150000000     0.197850000000     0          
O        O      0.923000000000     0.699000000000     0.238250000000     0          
O        O      0.767325000000     0.691050000000     0.243850000000     0          
O        O      0.847050000000     0.550200000000     0.215550000000     0          
O        O      0.979225000000     0.910550000000     0.434700000000     0          
O        O      0.823425000000     0.908900000000     0.443800000000     0          
O        O      0.776575000000     0.833800000000     0.429850000000     0          
O        O      0.770525000000     0.747850000000     0.447850000000     0          
O        O      0.827000000000     0.801000000000     0.488250000000     0          
O        O      0.982675000000     0.808950000000     0.493850000000     0          
O        O      0.902950000000     0.949800000000     0.465550000000     0          
O        O      0.979225000000     0.839450000000     0.684700000000     0          
O        O      0.823425000000     0.841100000000     0.693800000000     0          
O        O      0.776575000000     0.916200000000     0.679850000000     0          
O        O      0.785850000000     0.855250000000     0.625000000000     0          
O        O      0.770525000000     0.502150000000     0.697850000000     0          
O        O      0.827000000000     0.949000000000     0.738250000000     0          
O        O      0.982675000000     0.941050000000     0.743850000000     0          
O        O      0.902950000000     0.800200000000     0.715550000000     0          
O        O      0.876475000000     0.875000000000     0.750000000000     0          
O        O      0.770775000000     0.660550000000     0.934700000000     0          
O        O      0.926575000000     0.658900000000     0.943800000000     0          
O        O      0.973425000000     0.583800000000     0.929850000000     0          
O        O      0.964150000000     0.644750000000     0.875000000000     0          
O        O      0.979475000000     0.997850000000     0.947850000000     0          
O        O      0.923000000000     0.551000000000     0.988250000000     0          
O        O      0.767325000000     0.558950000000     0.993850000000     0          
O        O      0.847050000000     0.699800000000     0.965550000000     0          
O        O      0.873525000000     0.625000000000     0.500000000000     0          
O        O      0.979225000000     0.910550000000     0.815300000000     0          
O        O      0.823425000000     0.908900000000     0.806200000000     0          
O        O      0.776575000000     0.833800000000     0.820150000000     0          
O        O      0.785850000000     0.894750000000     0.875000000000     0          
O        O      0.770525000000     0.747850000000     0.802150000000     0          
O        O      0.827000000000     0.801000000000     0.761750000000     0          
O        O      0.982675000000     0.808950000000     0.756150000000     0          
O        O      0.902950000000     0.949800000000     0.784450000000     0          
O        O      0.770775000000     0.589450000000     0.565300000000     0          
O        O      0.926575000000     0.591100000000     0.556200000000     0          
O        O      0.973425000000     0.666200000000     0.570150000000     0          
O        O      0.964150000000     0.605250000000     0.625000000000     0          
O        O      0.979475000000     0.752150000000     0.552150000000     0          
O        O      0.923000000000     0.699000000000     0.511750000000     0          
O        O      0.767325000000     0.691050000000     0.506150000000     0          
O        O      0.847050000000     0.550200000000     0.534450000000     0          
O        O      0.770775000000     0.660550000000     0.815300000000     0          
O        O      0.926575000000     0.658900000000     0.806200000000     0          
O        O      0.973425000000     0.583800000000     0.820150000000     0          
O        O      0.979475000000     0.997850000000     0.802150000000     0          
O        O      0.923000000000     0.551000000000     0.761750000000     0          
O        O      0.767325000000     0.558950000000     0.756150000000     0          
O        O      0.847050000000     0.699800000000     0.784450000000     0          
O        O      0.873525000000     0.625000000000     0.750000000000     0          
O        O      0.979225000000     0.839450000000     0.565300000000     0          
O        O      0.823425000000     0.841100000000     0.556200000000     0          
O        O      0.776575000000     0.916200000000     0.570150000000     0          
O        O      0.770525000000     0.502150000000     0.552150000000     0          
O        O      0.827000000000     0.949000000000     0.511750000000     0          
O        O      0.982675000000     0.941050000000     0.506150000000     0          
O        O      0.902950000000     0.800200000000     0.534450000000     0          
O        O      0.876475000000     0.875000000000     0.500000000000     0          
O        O      0.770775000000     0.589450000000     0.684700000000     0          
O        O      0.926575000000     0.591100000000     0.693800000000     0          
O        O      0.973425000000     0.666200000000     0.679850000000     0          
O        O      0.979475000000     0.752150000000     0.697850000000     0          
O        O      0.923000000000     0.699000000000     0.738250000000     0          
O        O      0.767325000000     0.691050000000     0.743850000000     0          
O        O      0.847050000000     0.550200000000     0.715550000000     0          
O        O      0.979225000000     0.910550000000     0.934700000000     0          
O        O      0.823425000000     0.908900000000     0.943800000000     0          
O        O      0.776575000000     0.833800000000     0.929850000000     0          
O        O      0.770525000000     0.747850000000     0.947850000000     0          
O        O      0.827000000000     0.801000000000     0.988250000000     0          
O        O      0.982675000000     0.808950000000     0.993850000000     0          
O        O      0.902950000000     0.949800000000     0.965550000000     0          


