data_zeolite

_audit_creation_method RASPA-1.0
_audit_creation_date 2021-1-1
_audit_author_name ''

_cell_length_a    38.31
_cell_length_b    38.31
_cell_length_c    25.954
_cell_angle_alpha 90
_cell_angle_beta  90
_cell_angle_gamma 90
_cell_volume      38091.5

_symmetry_cell_setting          tetragonal
_symmetry_space_group_name_Hall 'P 1'
_symmetry_space_group_name_H-M  'P 1'
_symmetry_Int_Tables_number     1

_symmetry_equiv_pos_as_xyz 'x,y,z'

loop_
_atom_site_label
_atom_site_type_symbol
_atom_site_fract_x
_atom_site_fract_y
_atom_site_fract_z
_atom_site_charge
O        O      0.000000000000     0.206633333333     0.178200000000     0          
O        O      0.286433333333     0.218900000000     0.250000000000     0          
O        O      0.277966666667     0.166666666667     0.185500000000     0          
O        O      0.272100000000     0.231400000000     0.347700000000     0          
O        O      0.000000000000     0.293466666667     0.000000000000     0          
O        O      0.000000000000     0.000000000000     0.082250000000     0          
O        O      0.299100000000     0.059900000000     0.082200000000     0          
T        Si     0.292333333333     0.206000000000     0.308400000000     0          
T        Si     0.269000000000     0.269000000000     0.125000000000     0          
T        Si     0.000000000000     0.039733333333     0.061900000000     0          
O        O      0.126700000000     0.000000000000     0.428200000000     0          
O        O      0.114433333333     0.286433333333     0.000000000000     0          
O        O      0.166666666667     0.277966666667     0.435500000000     0          
O        O      0.101933333333     0.272100000000     0.097700000000     0          
O        O      0.039866666667     0.000000000000     0.250000000000     0          
O        O      0.000000000000     0.000000000000     0.332250000000     0          
O        O      0.273433333333     0.299100000000     0.332200000000     0          
T        Si     0.127333333333     0.292333333333     0.058400000000     0          
T        Si     0.064333333333     0.269000000000     0.375000000000     0          
T        Si     0.293600000000     0.000000000000     0.311900000000     0          
O        O      0.000000000000     0.126700000000     0.178200000000     0          
O        O      0.046900000000     0.114433333333     0.250000000000     0          
O        O      0.055366666667     0.166666666667     0.185500000000     0          
O        O      0.061233333333     0.101933333333     0.347700000000     0          
O        O      0.000000000000     0.039866666667     0.000000000000     0          
O        O      0.034233333333     0.273433333333     0.082200000000     0          
T        Si     0.041000000000     0.127333333333     0.308400000000     0          
T        Si     0.064333333333     0.064333333333     0.125000000000     0          
T        Si     0.000000000000     0.293600000000     0.061900000000     0          
O        O      0.206633333333     0.000000000000     0.428200000000     0          
O        O      0.218900000000     0.046900000000     0.000000000000     0          
O        O      0.166666666667     0.055366666667     0.435500000000     0          
O        O      0.231400000000     0.061233333333     0.097700000000     0          
O        O      0.293466666667     0.000000000000     0.250000000000     0          
O        O      0.059900000000     0.034233333333     0.332200000000     0          
T        Si     0.206000000000     0.041000000000     0.058400000000     0          
T        Si     0.269000000000     0.064333333333     0.375000000000     0          
T        Si     0.039733333333     0.000000000000     0.311900000000     0          
O        O      0.000000000000     0.126700000000     0.321800000000     0          
O        O      0.286433333333     0.114433333333     0.250000000000     0          
O        O      0.277966666667     0.166666666667     0.314500000000     0          
O        O      0.272100000000     0.101933333333     0.152300000000     0          
O        O      0.000000000000     0.000000000000     0.417750000000     0          
O        O      0.299100000000     0.273433333333     0.417800000000     0          
T        Si     0.292333333333     0.127333333333     0.191600000000     0          
T        Si     0.000000000000     0.293600000000     0.438100000000     0          
O        O      0.206633333333     0.000000000000     0.071800000000     0          
O        O      0.218900000000     0.286433333333     0.000000000000     0          
O        O      0.166666666667     0.277966666667     0.064500000000     0          
O        O      0.231400000000     0.272100000000     0.402300000000     0          
O        O      0.000000000000     0.000000000000     0.167750000000     0          
O        O      0.059900000000     0.299100000000     0.167800000000     0          
T        Si     0.206000000000     0.292333333333     0.441600000000     0          
T        Si     0.039733333333     0.000000000000     0.188100000000     0          
O        O      0.000000000000     0.206633333333     0.321800000000     0          
O        O      0.046900000000     0.218900000000     0.250000000000     0          
O        O      0.055366666667     0.166666666667     0.314500000000     0          
O        O      0.061233333333     0.231400000000     0.152300000000     0          
O        O      0.034233333333     0.059900000000     0.417800000000     0          
T        Si     0.041000000000     0.206000000000     0.191600000000     0          
T        Si     0.000000000000     0.039733333333     0.438100000000     0          
O        O      0.126700000000     0.000000000000     0.071800000000     0          
O        O      0.114433333333     0.046900000000     0.000000000000     0          
O        O      0.166666666667     0.055366666667     0.064500000000     0          
O        O      0.101933333333     0.061233333333     0.402300000000     0          
O        O      0.273433333333     0.034233333333     0.167800000000     0          
T        Si     0.127333333333     0.041000000000     0.441600000000     0          
T        Si     0.293600000000     0.000000000000     0.188100000000     0          
O        O      0.061233333333     0.101933333333     0.152300000000     0          
O        O      0.034233333333     0.273433333333     0.417800000000     0          
T        Si     0.041000000000     0.127333333333     0.191600000000     0          
T        Si     0.064333333333     0.064333333333     0.375000000000     0          
O        O      0.231400000000     0.061233333333     0.402300000000     0          
O        O      0.059900000000     0.034233333333     0.167800000000     0          
T        Si     0.206000000000     0.041000000000     0.441600000000     0          
T        Si     0.269000000000     0.064333333333     0.125000000000     0          
O        O      0.272100000000     0.231400000000     0.152300000000     0          
O        O      0.299100000000     0.059900000000     0.417800000000     0          
T        Si     0.292333333333     0.206000000000     0.191600000000     0          
T        Si     0.269000000000     0.269000000000     0.375000000000     0          
O        O      0.101933333333     0.272100000000     0.402300000000     0          
O        O      0.273433333333     0.299100000000     0.167800000000     0          
T        Si     0.127333333333     0.292333333333     0.441600000000     0          
T        Si     0.064333333333     0.269000000000     0.125000000000     0          
O        O      0.061233333333     0.231400000000     0.347700000000     0          
O        O      0.034233333333     0.059900000000     0.082200000000     0          
T        Si     0.041000000000     0.206000000000     0.308400000000     0          
O        O      0.101933333333     0.061233333333     0.097700000000     0          
O        O      0.273433333333     0.034233333333     0.332200000000     0          
T        Si     0.127333333333     0.041000000000     0.058400000000     0          
O        O      0.272100000000     0.101933333333     0.347700000000     0          
O        O      0.299100000000     0.273433333333     0.082200000000     0          
T        Si     0.292333333333     0.127333333333     0.308400000000     0          
O        O      0.231400000000     0.272100000000     0.097700000000     0          
O        O      0.059900000000     0.299100000000     0.332200000000     0          
T        Si     0.206000000000     0.292333333333     0.058400000000     0          
O        O      0.000000000000     0.206633333333     0.678200000000     0          
O        O      0.286433333333     0.218900000000     0.750000000000     0          
O        O      0.277966666667     0.166666666667     0.685500000000     0          
O        O      0.272100000000     0.231400000000     0.847700000000     0          
O        O      0.000000000000     0.293466666667     0.500000000000     0          
O        O      0.000000000000     0.000000000000     0.582250000000     0          
O        O      0.299100000000     0.059900000000     0.582200000000     0          
T        Si     0.292333333333     0.206000000000     0.808400000000     0          
T        Si     0.269000000000     0.269000000000     0.625000000000     0          
T        Si     0.000000000000     0.039733333333     0.561900000000     0          
O        O      0.126700000000     0.000000000000     0.928200000000     0          
O        O      0.114433333333     0.286433333333     0.500000000000     0          
O        O      0.166666666667     0.277966666667     0.935500000000     0          
O        O      0.101933333333     0.272100000000     0.597700000000     0          
O        O      0.039866666667     0.000000000000     0.750000000000     0          
O        O      0.000000000000     0.000000000000     0.832250000000     0          
O        O      0.273433333333     0.299100000000     0.832200000000     0          
T        Si     0.127333333333     0.292333333333     0.558400000000     0          
T        Si     0.064333333333     0.269000000000     0.875000000000     0          
T        Si     0.293600000000     0.000000000000     0.811900000000     0          
O        O      0.000000000000     0.126700000000     0.678200000000     0          
O        O      0.046900000000     0.114433333333     0.750000000000     0          
O        O      0.055366666667     0.166666666667     0.685500000000     0          
O        O      0.061233333333     0.101933333333     0.847700000000     0          
O        O      0.000000000000     0.039866666667     0.500000000000     0          
O        O      0.034233333333     0.273433333333     0.582200000000     0          
T        Si     0.041000000000     0.127333333333     0.808400000000     0          
T        Si     0.064333333333     0.064333333333     0.625000000000     0          
T        Si     0.000000000000     0.293600000000     0.561900000000     0          
O        O      0.206633333333     0.000000000000     0.928200000000     0          
O        O      0.218900000000     0.046900000000     0.500000000000     0          
O        O      0.166666666667     0.055366666667     0.935500000000     0          
O        O      0.231400000000     0.061233333333     0.597700000000     0          
O        O      0.293466666667     0.000000000000     0.750000000000     0          
O        O      0.059900000000     0.034233333333     0.832200000000     0          
T        Si     0.206000000000     0.041000000000     0.558400000000     0          
T        Si     0.269000000000     0.064333333333     0.875000000000     0          
T        Si     0.039733333333     0.000000000000     0.811900000000     0          
O        O      0.000000000000     0.126700000000     0.821800000000     0          
O        O      0.286433333333     0.114433333333     0.750000000000     0          
O        O      0.277966666667     0.166666666667     0.814500000000     0          
O        O      0.272100000000     0.101933333333     0.652300000000     0          
O        O      0.000000000000     0.000000000000     0.917750000000     0          
O        O      0.299100000000     0.273433333333     0.917800000000     0          
T        Si     0.292333333333     0.127333333333     0.691600000000     0          
T        Si     0.000000000000     0.293600000000     0.938100000000     0          
O        O      0.206633333333     0.000000000000     0.571800000000     0          
O        O      0.218900000000     0.286433333333     0.500000000000     0          
O        O      0.166666666667     0.277966666667     0.564500000000     0          
O        O      0.231400000000     0.272100000000     0.902300000000     0          
O        O      0.000000000000     0.000000000000     0.667750000000     0          
O        O      0.059900000000     0.299100000000     0.667800000000     0          
T        Si     0.206000000000     0.292333333333     0.941600000000     0          
T        Si     0.039733333333     0.000000000000     0.688100000000     0          
O        O      0.000000000000     0.206633333333     0.821800000000     0          
O        O      0.046900000000     0.218900000000     0.750000000000     0          
O        O      0.055366666667     0.166666666667     0.814500000000     0          
O        O      0.061233333333     0.231400000000     0.652300000000     0          
O        O      0.034233333333     0.059900000000     0.917800000000     0          
T        Si     0.041000000000     0.206000000000     0.691600000000     0          
T        Si     0.000000000000     0.039733333333     0.938100000000     0          
O        O      0.126700000000     0.000000000000     0.571800000000     0          
O        O      0.114433333333     0.046900000000     0.500000000000     0          
O        O      0.166666666667     0.055366666667     0.564500000000     0          
O        O      0.101933333333     0.061233333333     0.902300000000     0          
O        O      0.273433333333     0.034233333333     0.667800000000     0          
T        Si     0.127333333333     0.041000000000     0.941600000000     0          
T        Si     0.293600000000     0.000000000000     0.688100000000     0          
O        O      0.061233333333     0.101933333333     0.652300000000     0          
O        O      0.034233333333     0.273433333333     0.917800000000     0          
T        Si     0.041000000000     0.127333333333     0.691600000000     0          
T        Si     0.064333333333     0.064333333333     0.875000000000     0          
O        O      0.231400000000     0.061233333333     0.902300000000     0          
O        O      0.059900000000     0.034233333333     0.667800000000     0          
T        Si     0.206000000000     0.041000000000     0.941600000000     0          
T        Si     0.269000000000     0.064333333333     0.625000000000     0          
O        O      0.272100000000     0.231400000000     0.652300000000     0          
O        O      0.299100000000     0.059900000000     0.917800000000     0          
T        Si     0.292333333333     0.206000000000     0.691600000000     0          
T        Si     0.269000000000     0.269000000000     0.875000000000     0          
O        O      0.101933333333     0.272100000000     0.902300000000     0          
O        O      0.273433333333     0.299100000000     0.667800000000     0          
T        Si     0.127333333333     0.292333333333     0.941600000000     0          
T        Si     0.064333333333     0.269000000000     0.625000000000     0          
O        O      0.061233333333     0.231400000000     0.847700000000     0          
O        O      0.034233333333     0.059900000000     0.582200000000     0          
T        Si     0.041000000000     0.206000000000     0.808400000000     0          
O        O      0.101933333333     0.061233333333     0.597700000000     0          
O        O      0.273433333333     0.034233333333     0.832200000000     0          
T        Si     0.127333333333     0.041000000000     0.558400000000     0          
O        O      0.272100000000     0.101933333333     0.847700000000     0          
O        O      0.299100000000     0.273433333333     0.582200000000     0          
T        Si     0.292333333333     0.127333333333     0.808400000000     0          
O        O      0.231400000000     0.272100000000     0.597700000000     0          
O        O      0.059900000000     0.299100000000     0.832200000000     0          
T        Si     0.206000000000     0.292333333333     0.558400000000     0          
O        O      0.000000000000     0.539966666667     0.178200000000     0          
O        O      0.286433333333     0.552233333333     0.250000000000     0          
O        O      0.277966666667     0.500000000000     0.185500000000     0          
O        O      0.272100000000     0.564733333333     0.347700000000     0          
O        O      0.000000000000     0.626800000000     0.000000000000     0          
O        O      0.000000000000     0.333333333333     0.082250000000     0          
O        O      0.299100000000     0.393233333333     0.082200000000     0          
T        Si     0.292333333333     0.539333333333     0.308400000000     0          
T        Si     0.269000000000     0.602333333333     0.125000000000     0          
T        Si     0.000000000000     0.373066666667     0.061900000000     0          
O        O      0.126700000000     0.333333333333     0.428200000000     0          
O        O      0.114433333333     0.619766666667     0.000000000000     0          
O        O      0.166666666667     0.611300000000     0.435500000000     0          
O        O      0.101933333333     0.605433333333     0.097700000000     0          
O        O      0.039866666667     0.333333333333     0.250000000000     0          
O        O      0.000000000000     0.333333333333     0.332250000000     0          
O        O      0.273433333333     0.632433333333     0.332200000000     0          
T        Si     0.127333333333     0.625666666667     0.058400000000     0          
T        Si     0.064333333333     0.602333333333     0.375000000000     0          
T        Si     0.293600000000     0.333333333333     0.311900000000     0          
O        O      0.000000000000     0.460033333333     0.178200000000     0          
O        O      0.046900000000     0.447766666667     0.250000000000     0          
O        O      0.055366666667     0.500000000000     0.185500000000     0          
O        O      0.061233333333     0.435266666667     0.347700000000     0          
O        O      0.000000000000     0.373200000000     0.000000000000     0          
O        O      0.034233333333     0.606766666667     0.082200000000     0          
T        Si     0.041000000000     0.460666666667     0.308400000000     0          
T        Si     0.064333333333     0.397666666667     0.125000000000     0          
T        Si     0.000000000000     0.626933333333     0.061900000000     0          
O        O      0.206633333333     0.333333333333     0.428200000000     0          
O        O      0.218900000000     0.380233333333     0.000000000000     0          
O        O      0.166666666667     0.388700000000     0.435500000000     0          
O        O      0.231400000000     0.394566666667     0.097700000000     0          
O        O      0.293466666667     0.333333333333     0.250000000000     0          
O        O      0.059900000000     0.367566666667     0.332200000000     0          
T        Si     0.206000000000     0.374333333333     0.058400000000     0          
T        Si     0.269000000000     0.397666666667     0.375000000000     0          
T        Si     0.039733333333     0.333333333333     0.311900000000     0          
O        O      0.000000000000     0.460033333333     0.321800000000     0          
O        O      0.286433333333     0.447766666667     0.250000000000     0          
O        O      0.277966666667     0.500000000000     0.314500000000     0          
O        O      0.272100000000     0.435266666667     0.152300000000     0          
O        O      0.000000000000     0.333333333333     0.417750000000     0          
O        O      0.299100000000     0.606766666667     0.417800000000     0          
T        Si     0.292333333333     0.460666666667     0.191600000000     0          
T        Si     0.000000000000     0.626933333333     0.438100000000     0          
O        O      0.206633333333     0.333333333333     0.071800000000     0          
O        O      0.218900000000     0.619766666667     0.000000000000     0          
O        O      0.166666666667     0.611300000000     0.064500000000     0          
O        O      0.231400000000     0.605433333333     0.402300000000     0          
O        O      0.000000000000     0.333333333333     0.167750000000     0          
O        O      0.059900000000     0.632433333333     0.167800000000     0          
T        Si     0.206000000000     0.625666666667     0.441600000000     0          
T        Si     0.039733333333     0.333333333333     0.188100000000     0          
O        O      0.000000000000     0.539966666667     0.321800000000     0          
O        O      0.046900000000     0.552233333333     0.250000000000     0          
O        O      0.055366666667     0.500000000000     0.314500000000     0          
O        O      0.061233333333     0.564733333333     0.152300000000     0          
O        O      0.034233333333     0.393233333333     0.417800000000     0          
T        Si     0.041000000000     0.539333333333     0.191600000000     0          
T        Si     0.000000000000     0.373066666667     0.438100000000     0          
O        O      0.126700000000     0.333333333333     0.071800000000     0          
O        O      0.114433333333     0.380233333333     0.000000000000     0          
O        O      0.166666666667     0.388700000000     0.064500000000     0          
O        O      0.101933333333     0.394566666667     0.402300000000     0          
O        O      0.273433333333     0.367566666667     0.167800000000     0          
T        Si     0.127333333333     0.374333333333     0.441600000000     0          
T        Si     0.293600000000     0.333333333333     0.188100000000     0          
O        O      0.061233333333     0.435266666667     0.152300000000     0          
O        O      0.034233333333     0.606766666667     0.417800000000     0          
T        Si     0.041000000000     0.460666666667     0.191600000000     0          
T        Si     0.064333333333     0.397666666667     0.375000000000     0          
O        O      0.231400000000     0.394566666667     0.402300000000     0          
O        O      0.059900000000     0.367566666667     0.167800000000     0          
T        Si     0.206000000000     0.374333333333     0.441600000000     0          
T        Si     0.269000000000     0.397666666667     0.125000000000     0          
O        O      0.272100000000     0.564733333333     0.152300000000     0          
O        O      0.299100000000     0.393233333333     0.417800000000     0          
T        Si     0.292333333333     0.539333333333     0.191600000000     0          
T        Si     0.269000000000     0.602333333333     0.375000000000     0          
O        O      0.101933333333     0.605433333333     0.402300000000     0          
O        O      0.273433333333     0.632433333333     0.167800000000     0          
T        Si     0.127333333333     0.625666666667     0.441600000000     0          
T        Si     0.064333333333     0.602333333333     0.125000000000     0          
O        O      0.061233333333     0.564733333333     0.347700000000     0          
O        O      0.034233333333     0.393233333333     0.082200000000     0          
T        Si     0.041000000000     0.539333333333     0.308400000000     0          
O        O      0.101933333333     0.394566666667     0.097700000000     0          
O        O      0.273433333333     0.367566666667     0.332200000000     0          
T        Si     0.127333333333     0.374333333333     0.058400000000     0          
O        O      0.272100000000     0.435266666667     0.347700000000     0          
O        O      0.299100000000     0.606766666667     0.082200000000     0          
T        Si     0.292333333333     0.460666666667     0.308400000000     0          
O        O      0.231400000000     0.605433333333     0.097700000000     0          
O        O      0.059900000000     0.632433333333     0.332200000000     0          
T        Si     0.206000000000     0.625666666667     0.058400000000     0          
O        O      0.000000000000     0.539966666667     0.678200000000     0          
O        O      0.286433333333     0.552233333333     0.750000000000     0          
O        O      0.277966666667     0.500000000000     0.685500000000     0          
O        O      0.272100000000     0.564733333333     0.847700000000     0          
O        O      0.000000000000     0.626800000000     0.500000000000     0          
O        O      0.000000000000     0.333333333333     0.582250000000     0          
O        O      0.299100000000     0.393233333333     0.582200000000     0          
T        Si     0.292333333333     0.539333333333     0.808400000000     0          
T        Si     0.269000000000     0.602333333333     0.625000000000     0          
T        Si     0.000000000000     0.373066666667     0.561900000000     0          
O        O      0.126700000000     0.333333333333     0.928200000000     0          
O        O      0.114433333333     0.619766666667     0.500000000000     0          
O        O      0.166666666667     0.611300000000     0.935500000000     0          
O        O      0.101933333333     0.605433333333     0.597700000000     0          
O        O      0.039866666667     0.333333333333     0.750000000000     0          
O        O      0.000000000000     0.333333333333     0.832250000000     0          
O        O      0.273433333333     0.632433333333     0.832200000000     0          
T        Si     0.127333333333     0.625666666667     0.558400000000     0          
T        Si     0.064333333333     0.602333333333     0.875000000000     0          
T        Si     0.293600000000     0.333333333333     0.811900000000     0          
O        O      0.000000000000     0.460033333333     0.678200000000     0          
O        O      0.046900000000     0.447766666667     0.750000000000     0          
O        O      0.055366666667     0.500000000000     0.685500000000     0          
O        O      0.061233333333     0.435266666667     0.847700000000     0          
O        O      0.000000000000     0.373200000000     0.500000000000     0          
O        O      0.034233333333     0.606766666667     0.582200000000     0          
T        Si     0.041000000000     0.460666666667     0.808400000000     0          
T        Si     0.064333333333     0.397666666667     0.625000000000     0          
T        Si     0.000000000000     0.626933333333     0.561900000000     0          
O        O      0.206633333333     0.333333333333     0.928200000000     0          
O        O      0.218900000000     0.380233333333     0.500000000000     0          
O        O      0.166666666667     0.388700000000     0.935500000000     0          
O        O      0.231400000000     0.394566666667     0.597700000000     0          
O        O      0.293466666667     0.333333333333     0.750000000000     0          
O        O      0.059900000000     0.367566666667     0.832200000000     0          
T        Si     0.206000000000     0.374333333333     0.558400000000     0          
T        Si     0.269000000000     0.397666666667     0.875000000000     0          
T        Si     0.039733333333     0.333333333333     0.811900000000     0          
O        O      0.000000000000     0.460033333333     0.821800000000     0          
O        O      0.286433333333     0.447766666667     0.750000000000     0          
O        O      0.277966666667     0.500000000000     0.814500000000     0          
O        O      0.272100000000     0.435266666667     0.652300000000     0          
O        O      0.000000000000     0.333333333333     0.917750000000     0          
O        O      0.299100000000     0.606766666667     0.917800000000     0          
T        Si     0.292333333333     0.460666666667     0.691600000000     0          
T        Si     0.000000000000     0.626933333333     0.938100000000     0          
O        O      0.206633333333     0.333333333333     0.571800000000     0          
O        O      0.218900000000     0.619766666667     0.500000000000     0          
O        O      0.166666666667     0.611300000000     0.564500000000     0          
O        O      0.231400000000     0.605433333333     0.902300000000     0          
O        O      0.000000000000     0.333333333333     0.667750000000     0          
O        O      0.059900000000     0.632433333333     0.667800000000     0          
T        Si     0.206000000000     0.625666666667     0.941600000000     0          
T        Si     0.039733333333     0.333333333333     0.688100000000     0          
O        O      0.000000000000     0.539966666667     0.821800000000     0          
O        O      0.046900000000     0.552233333333     0.750000000000     0          
O        O      0.055366666667     0.500000000000     0.814500000000     0          
O        O      0.061233333333     0.564733333333     0.652300000000     0          
O        O      0.034233333333     0.393233333333     0.917800000000     0          
T        Si     0.041000000000     0.539333333333     0.691600000000     0          
T        Si     0.000000000000     0.373066666667     0.938100000000     0          
O        O      0.126700000000     0.333333333333     0.571800000000     0          
O        O      0.114433333333     0.380233333333     0.500000000000     0          
O        O      0.166666666667     0.388700000000     0.564500000000     0          
O        O      0.101933333333     0.394566666667     0.902300000000     0          
O        O      0.273433333333     0.367566666667     0.667800000000     0          
T        Si     0.127333333333     0.374333333333     0.941600000000     0          
T        Si     0.293600000000     0.333333333333     0.688100000000     0          
O        O      0.061233333333     0.435266666667     0.652300000000     0          
O        O      0.034233333333     0.606766666667     0.917800000000     0          
T        Si     0.041000000000     0.460666666667     0.691600000000     0          
T        Si     0.064333333333     0.397666666667     0.875000000000     0          
O        O      0.231400000000     0.394566666667     0.902300000000     0          
O        O      0.059900000000     0.367566666667     0.667800000000     0          
T        Si     0.206000000000     0.374333333333     0.941600000000     0          
T        Si     0.269000000000     0.397666666667     0.625000000000     0          
O        O      0.272100000000     0.564733333333     0.652300000000     0          
O        O      0.299100000000     0.393233333333     0.917800000000     0          
T        Si     0.292333333333     0.539333333333     0.691600000000     0          
T        Si     0.269000000000     0.602333333333     0.875000000000     0          
O        O      0.101933333333     0.605433333333     0.902300000000     0          
O        O      0.273433333333     0.632433333333     0.667800000000     0          
T        Si     0.127333333333     0.625666666667     0.941600000000     0          
T        Si     0.064333333333     0.602333333333     0.625000000000     0          
O        O      0.061233333333     0.564733333333     0.847700000000     0          
O        O      0.034233333333     0.393233333333     0.582200000000     0          
T        Si     0.041000000000     0.539333333333     0.808400000000     0          
O        O      0.101933333333     0.394566666667     0.597700000000     0          
O        O      0.273433333333     0.367566666667     0.832200000000     0          
T        Si     0.127333333333     0.374333333333     0.558400000000     0          
O        O      0.272100000000     0.435266666667     0.847700000000     0          
O        O      0.299100000000     0.606766666667     0.582200000000     0          
T        Si     0.292333333333     0.460666666667     0.808400000000     0          
O        O      0.231400000000     0.605433333333     0.597700000000     0          
O        O      0.059900000000     0.632433333333     0.832200000000     0          
T        Si     0.206000000000     0.625666666667     0.558400000000     0          
O        O      0.000000000000     0.873300000000     0.178200000000     0          
O        O      0.286433333333     0.885566666667     0.250000000000     0          
O        O      0.277966666667     0.833333333333     0.185500000000     0          
O        O      0.272100000000     0.898066666667     0.347700000000     0          
O        O      0.000000000000     0.960133333333     0.000000000000     0          
O        O      0.000000000000     0.666666666667     0.082250000000     0          
O        O      0.299100000000     0.726566666667     0.082200000000     0          
T        Si     0.292333333333     0.872666666667     0.308400000000     0          
T        Si     0.269000000000     0.935666666667     0.125000000000     0          
T        Si     0.000000000000     0.706400000000     0.061900000000     0          
O        O      0.126700000000     0.666666666667     0.428200000000     0          
O        O      0.114433333333     0.953100000000     0.000000000000     0          
O        O      0.166666666667     0.944633333333     0.435500000000     0          
O        O      0.101933333333     0.938766666667     0.097700000000     0          
O        O      0.039866666667     0.666666666667     0.250000000000     0          
O        O      0.000000000000     0.666666666667     0.332250000000     0          
O        O      0.273433333333     0.965766666667     0.332200000000     0          
T        Si     0.127333333333     0.959000000000     0.058400000000     0          
T        Si     0.064333333333     0.935666666667     0.375000000000     0          
T        Si     0.293600000000     0.666666666667     0.311900000000     0          
O        O      0.000000000000     0.793366666667     0.178200000000     0          
O        O      0.046900000000     0.781100000000     0.250000000000     0          
O        O      0.055366666667     0.833333333333     0.185500000000     0          
O        O      0.061233333333     0.768600000000     0.347700000000     0          
O        O      0.000000000000     0.706533333333     0.000000000000     0          
O        O      0.034233333333     0.940100000000     0.082200000000     0          
T        Si     0.041000000000     0.794000000000     0.308400000000     0          
T        Si     0.064333333333     0.731000000000     0.125000000000     0          
T        Si     0.000000000000     0.960266666667     0.061900000000     0          
O        O      0.206633333333     0.666666666667     0.428200000000     0          
O        O      0.218900000000     0.713566666667     0.000000000000     0          
O        O      0.166666666667     0.722033333333     0.435500000000     0          
O        O      0.231400000000     0.727900000000     0.097700000000     0          
O        O      0.293466666667     0.666666666667     0.250000000000     0          
O        O      0.059900000000     0.700900000000     0.332200000000     0          
T        Si     0.206000000000     0.707666666667     0.058400000000     0          
T        Si     0.269000000000     0.731000000000     0.375000000000     0          
T        Si     0.039733333333     0.666666666667     0.311900000000     0          
O        O      0.000000000000     0.793366666667     0.321800000000     0          
O        O      0.286433333333     0.781100000000     0.250000000000     0          
O        O      0.277966666667     0.833333333333     0.314500000000     0          
O        O      0.272100000000     0.768600000000     0.152300000000     0          
O        O      0.000000000000     0.666666666667     0.417750000000     0          
O        O      0.299100000000     0.940100000000     0.417800000000     0          
T        Si     0.292333333333     0.794000000000     0.191600000000     0          
T        Si     0.000000000000     0.960266666667     0.438100000000     0          
O        O      0.206633333333     0.666666666667     0.071800000000     0          
O        O      0.218900000000     0.953100000000     0.000000000000     0          
O        O      0.166666666667     0.944633333333     0.064500000000     0          
O        O      0.231400000000     0.938766666667     0.402300000000     0          
O        O      0.000000000000     0.666666666667     0.167750000000     0          
O        O      0.059900000000     0.965766666667     0.167800000000     0          
T        Si     0.206000000000     0.959000000000     0.441600000000     0          
T        Si     0.039733333333     0.666666666667     0.188100000000     0          
O        O      0.000000000000     0.873300000000     0.321800000000     0          
O        O      0.046900000000     0.885566666667     0.250000000000     0          
O        O      0.055366666667     0.833333333333     0.314500000000     0          
O        O      0.061233333333     0.898066666667     0.152300000000     0          
O        O      0.034233333333     0.726566666667     0.417800000000     0          
T        Si     0.041000000000     0.872666666667     0.191600000000     0          
T        Si     0.000000000000     0.706400000000     0.438100000000     0          
O        O      0.126700000000     0.666666666667     0.071800000000     0          
O        O      0.114433333333     0.713566666667     0.000000000000     0          
O        O      0.166666666667     0.722033333333     0.064500000000     0          
O        O      0.101933333333     0.727900000000     0.402300000000     0          
O        O      0.273433333333     0.700900000000     0.167800000000     0          
T        Si     0.127333333333     0.707666666667     0.441600000000     0          
T        Si     0.293600000000     0.666666666667     0.188100000000     0          
O        O      0.061233333333     0.768600000000     0.152300000000     0          
O        O      0.034233333333     0.940100000000     0.417800000000     0          
T        Si     0.041000000000     0.794000000000     0.191600000000     0          
T        Si     0.064333333333     0.731000000000     0.375000000000     0          
O        O      0.231400000000     0.727900000000     0.402300000000     0          
O        O      0.059900000000     0.700900000000     0.167800000000     0          
T        Si     0.206000000000     0.707666666667     0.441600000000     0          
T        Si     0.269000000000     0.731000000000     0.125000000000     0          
O        O      0.272100000000     0.898066666667     0.152300000000     0          
O        O      0.299100000000     0.726566666667     0.417800000000     0          
T        Si     0.292333333333     0.872666666667     0.191600000000     0          
T        Si     0.269000000000     0.935666666667     0.375000000000     0          
O        O      0.101933333333     0.938766666667     0.402300000000     0          
O        O      0.273433333333     0.965766666667     0.167800000000     0          
T        Si     0.127333333333     0.959000000000     0.441600000000     0          
T        Si     0.064333333333     0.935666666667     0.125000000000     0          
O        O      0.061233333333     0.898066666667     0.347700000000     0          
O        O      0.034233333333     0.726566666667     0.082200000000     0          
T        Si     0.041000000000     0.872666666667     0.308400000000     0          
O        O      0.101933333333     0.727900000000     0.097700000000     0          
O        O      0.273433333333     0.700900000000     0.332200000000     0          
T        Si     0.127333333333     0.707666666667     0.058400000000     0          
O        O      0.272100000000     0.768600000000     0.347700000000     0          
O        O      0.299100000000     0.940100000000     0.082200000000     0          
T        Si     0.292333333333     0.794000000000     0.308400000000     0          
O        O      0.231400000000     0.938766666667     0.097700000000     0          
O        O      0.059900000000     0.965766666667     0.332200000000     0          
T        Si     0.206000000000     0.959000000000     0.058400000000     0          
O        O      0.000000000000     0.873300000000     0.678200000000     0          
O        O      0.286433333333     0.885566666667     0.750000000000     0          
O        O      0.277966666667     0.833333333333     0.685500000000     0          
O        O      0.272100000000     0.898066666667     0.847700000000     0          
O        O      0.000000000000     0.960133333333     0.500000000000     0          
O        O      0.000000000000     0.666666666667     0.582250000000     0          
O        O      0.299100000000     0.726566666667     0.582200000000     0          
T        Si     0.292333333333     0.872666666667     0.808400000000     0          
T        Si     0.269000000000     0.935666666667     0.625000000000     0          
T        Si     0.000000000000     0.706400000000     0.561900000000     0          
O        O      0.126700000000     0.666666666667     0.928200000000     0          
O        O      0.114433333333     0.953100000000     0.500000000000     0          
O        O      0.166666666667     0.944633333333     0.935500000000     0          
O        O      0.101933333333     0.938766666667     0.597700000000     0          
O        O      0.039866666667     0.666666666667     0.750000000000     0          
O        O      0.000000000000     0.666666666667     0.832250000000     0          
O        O      0.273433333333     0.965766666667     0.832200000000     0          
T        Si     0.127333333333     0.959000000000     0.558400000000     0          
T        Si     0.064333333333     0.935666666667     0.875000000000     0          
T        Si     0.293600000000     0.666666666667     0.811900000000     0          
O        O      0.000000000000     0.793366666667     0.678200000000     0          
O        O      0.046900000000     0.781100000000     0.750000000000     0          
O        O      0.055366666667     0.833333333333     0.685500000000     0          
O        O      0.061233333333     0.768600000000     0.847700000000     0          
O        O      0.000000000000     0.706533333333     0.500000000000     0          
O        O      0.034233333333     0.940100000000     0.582200000000     0          
T        Si     0.041000000000     0.794000000000     0.808400000000     0          
T        Si     0.064333333333     0.731000000000     0.625000000000     0          
T        Si     0.000000000000     0.960266666667     0.561900000000     0          
O        O      0.206633333333     0.666666666667     0.928200000000     0          
O        O      0.218900000000     0.713566666667     0.500000000000     0          
O        O      0.166666666667     0.722033333333     0.935500000000     0          
O        O      0.231400000000     0.727900000000     0.597700000000     0          
O        O      0.293466666667     0.666666666667     0.750000000000     0          
O        O      0.059900000000     0.700900000000     0.832200000000     0          
T        Si     0.206000000000     0.707666666667     0.558400000000     0          
T        Si     0.269000000000     0.731000000000     0.875000000000     0          
T        Si     0.039733333333     0.666666666667     0.811900000000     0          
O        O      0.000000000000     0.793366666667     0.821800000000     0          
O        O      0.286433333333     0.781100000000     0.750000000000     0          
O        O      0.277966666667     0.833333333333     0.814500000000     0          
O        O      0.272100000000     0.768600000000     0.652300000000     0          
O        O      0.000000000000     0.666666666667     0.917750000000     0          
O        O      0.299100000000     0.940100000000     0.917800000000     0          
T        Si     0.292333333333     0.794000000000     0.691600000000     0          
T        Si     0.000000000000     0.960266666667     0.938100000000     0          
O        O      0.206633333333     0.666666666667     0.571800000000     0          
O        O      0.218900000000     0.953100000000     0.500000000000     0          
O        O      0.166666666667     0.944633333333     0.564500000000     0          
O        O      0.231400000000     0.938766666667     0.902300000000     0          
O        O      0.000000000000     0.666666666667     0.667750000000     0          
O        O      0.059900000000     0.965766666667     0.667800000000     0          
T        Si     0.206000000000     0.959000000000     0.941600000000     0          
T        Si     0.039733333333     0.666666666667     0.688100000000     0          
O        O      0.000000000000     0.873300000000     0.821800000000     0          
O        O      0.046900000000     0.885566666667     0.750000000000     0          
O        O      0.055366666667     0.833333333333     0.814500000000     0          
O        O      0.061233333333     0.898066666667     0.652300000000     0          
O        O      0.034233333333     0.726566666667     0.917800000000     0          
T        Si     0.041000000000     0.872666666667     0.691600000000     0          
T        Si     0.000000000000     0.706400000000     0.938100000000     0          
O        O      0.126700000000     0.666666666667     0.571800000000     0          
O        O      0.114433333333     0.713566666667     0.500000000000     0          
O        O      0.166666666667     0.722033333333     0.564500000000     0          
O        O      0.101933333333     0.727900000000     0.902300000000     0          
O        O      0.273433333333     0.700900000000     0.667800000000     0          
T        Si     0.127333333333     0.707666666667     0.941600000000     0          
T        Si     0.293600000000     0.666666666667     0.688100000000     0          
O        O      0.061233333333     0.768600000000     0.652300000000     0          
O        O      0.034233333333     0.940100000000     0.917800000000     0          
T        Si     0.041000000000     0.794000000000     0.691600000000     0          
T        Si     0.064333333333     0.731000000000     0.875000000000     0          
O        O      0.231400000000     0.727900000000     0.902300000000     0          
O        O      0.059900000000     0.700900000000     0.667800000000     0          
T        Si     0.206000000000     0.707666666667     0.941600000000     0          
T        Si     0.269000000000     0.731000000000     0.625000000000     0          
O        O      0.272100000000     0.898066666667     0.652300000000     0          
O        O      0.299100000000     0.726566666667     0.917800000000     0          
T        Si     0.292333333333     0.872666666667     0.691600000000     0          
T        Si     0.269000000000     0.935666666667     0.875000000000     0          
O        O      0.101933333333     0.938766666667     0.902300000000     0          
O        O      0.273433333333     0.965766666667     0.667800000000     0          
T        Si     0.127333333333     0.959000000000     0.941600000000     0          
T        Si     0.064333333333     0.935666666667     0.625000000000     0          
O        O      0.061233333333     0.898066666667     0.847700000000     0          
O        O      0.034233333333     0.726566666667     0.582200000000     0          
T        Si     0.041000000000     0.872666666667     0.808400000000     0          
O        O      0.101933333333     0.727900000000     0.597700000000     0          
O        O      0.273433333333     0.700900000000     0.832200000000     0          
T        Si     0.127333333333     0.707666666667     0.558400000000     0          
O        O      0.272100000000     0.768600000000     0.847700000000     0          
O        O      0.299100000000     0.940100000000     0.582200000000     0          
T        Si     0.292333333333     0.794000000000     0.808400000000     0          
O        O      0.231400000000     0.938766666667     0.597700000000     0          
O        O      0.059900000000     0.965766666667     0.832200000000     0          
T        Si     0.206000000000     0.959000000000     0.558400000000     0          
O        O      0.333333333333     0.206633333333     0.178200000000     0          
O        O      0.619766666667     0.218900000000     0.250000000000     0          
O        O      0.611300000000     0.166666666667     0.185500000000     0          
O        O      0.605433333333     0.231400000000     0.347700000000     0          
O        O      0.333333333333     0.293466666667     0.000000000000     0          
O        O      0.333333333333     0.000000000000     0.082250000000     0          
O        O      0.632433333333     0.059900000000     0.082200000000     0          
T        Si     0.625666666667     0.206000000000     0.308400000000     0          
T        Si     0.602333333333     0.269000000000     0.125000000000     0          
T        Si     0.333333333333     0.039733333333     0.061900000000     0          
O        O      0.460033333333     0.000000000000     0.428200000000     0          
O        O      0.447766666667     0.286433333333     0.000000000000     0          
O        O      0.500000000000     0.277966666667     0.435500000000     0          
O        O      0.435266666667     0.272100000000     0.097700000000     0          
O        O      0.373200000000     0.000000000000     0.250000000000     0          
O        O      0.333333333333     0.000000000000     0.332250000000     0          
O        O      0.606766666667     0.299100000000     0.332200000000     0          
T        Si     0.460666666667     0.292333333333     0.058400000000     0          
T        Si     0.397666666667     0.269000000000     0.375000000000     0          
T        Si     0.626933333333     0.000000000000     0.311900000000     0          
O        O      0.333333333333     0.126700000000     0.178200000000     0          
O        O      0.380233333333     0.114433333333     0.250000000000     0          
O        O      0.388700000000     0.166666666667     0.185500000000     0          
O        O      0.394566666667     0.101933333333     0.347700000000     0          
O        O      0.333333333333     0.039866666667     0.000000000000     0          
O        O      0.367566666667     0.273433333333     0.082200000000     0          
T        Si     0.374333333333     0.127333333333     0.308400000000     0          
T        Si     0.397666666667     0.064333333333     0.125000000000     0          
T        Si     0.333333333333     0.293600000000     0.061900000000     0          
O        O      0.539966666667     0.000000000000     0.428200000000     0          
O        O      0.552233333333     0.046900000000     0.000000000000     0          
O        O      0.500000000000     0.055366666667     0.435500000000     0          
O        O      0.564733333333     0.061233333333     0.097700000000     0          
O        O      0.626800000000     0.000000000000     0.250000000000     0          
O        O      0.393233333333     0.034233333333     0.332200000000     0          
T        Si     0.539333333333     0.041000000000     0.058400000000     0          
T        Si     0.602333333333     0.064333333333     0.375000000000     0          
T        Si     0.373066666667     0.000000000000     0.311900000000     0          
O        O      0.333333333333     0.126700000000     0.321800000000     0          
O        O      0.619766666667     0.114433333333     0.250000000000     0          
O        O      0.611300000000     0.166666666667     0.314500000000     0          
O        O      0.605433333333     0.101933333333     0.152300000000     0          
O        O      0.333333333333     0.000000000000     0.417750000000     0          
O        O      0.632433333333     0.273433333333     0.417800000000     0          
T        Si     0.625666666667     0.127333333333     0.191600000000     0          
T        Si     0.333333333333     0.293600000000     0.438100000000     0          
O        O      0.539966666667     0.000000000000     0.071800000000     0          
O        O      0.552233333333     0.286433333333     0.000000000000     0          
O        O      0.500000000000     0.277966666667     0.064500000000     0          
O        O      0.564733333333     0.272100000000     0.402300000000     0          
O        O      0.333333333333     0.000000000000     0.167750000000     0          
O        O      0.393233333333     0.299100000000     0.167800000000     0          
T        Si     0.539333333333     0.292333333333     0.441600000000     0          
T        Si     0.373066666667     0.000000000000     0.188100000000     0          
O        O      0.333333333333     0.206633333333     0.321800000000     0          
O        O      0.380233333333     0.218900000000     0.250000000000     0          
O        O      0.388700000000     0.166666666667     0.314500000000     0          
O        O      0.394566666667     0.231400000000     0.152300000000     0          
O        O      0.367566666667     0.059900000000     0.417800000000     0          
T        Si     0.374333333333     0.206000000000     0.191600000000     0          
T        Si     0.333333333333     0.039733333333     0.438100000000     0          
O        O      0.460033333333     0.000000000000     0.071800000000     0          
O        O      0.447766666667     0.046900000000     0.000000000000     0          
O        O      0.500000000000     0.055366666667     0.064500000000     0          
O        O      0.435266666667     0.061233333333     0.402300000000     0          
O        O      0.606766666667     0.034233333333     0.167800000000     0          
T        Si     0.460666666667     0.041000000000     0.441600000000     0          
T        Si     0.626933333333     0.000000000000     0.188100000000     0          
O        O      0.394566666667     0.101933333333     0.152300000000     0          
O        O      0.367566666667     0.273433333333     0.417800000000     0          
T        Si     0.374333333333     0.127333333333     0.191600000000     0          
T        Si     0.397666666667     0.064333333333     0.375000000000     0          
O        O      0.564733333333     0.061233333333     0.402300000000     0          
O        O      0.393233333333     0.034233333333     0.167800000000     0          
T        Si     0.539333333333     0.041000000000     0.441600000000     0          
T        Si     0.602333333333     0.064333333333     0.125000000000     0          
O        O      0.605433333333     0.231400000000     0.152300000000     0          
O        O      0.632433333333     0.059900000000     0.417800000000     0          
T        Si     0.625666666667     0.206000000000     0.191600000000     0          
T        Si     0.602333333333     0.269000000000     0.375000000000     0          
O        O      0.435266666667     0.272100000000     0.402300000000     0          
O        O      0.606766666667     0.299100000000     0.167800000000     0          
T        Si     0.460666666667     0.292333333333     0.441600000000     0          
T        Si     0.397666666667     0.269000000000     0.125000000000     0          
O        O      0.394566666667     0.231400000000     0.347700000000     0          
O        O      0.367566666667     0.059900000000     0.082200000000     0          
T        Si     0.374333333333     0.206000000000     0.308400000000     0          
O        O      0.435266666667     0.061233333333     0.097700000000     0          
O        O      0.606766666667     0.034233333333     0.332200000000     0          
T        Si     0.460666666667     0.041000000000     0.058400000000     0          
O        O      0.605433333333     0.101933333333     0.347700000000     0          
O        O      0.632433333333     0.273433333333     0.082200000000     0          
T        Si     0.625666666667     0.127333333333     0.308400000000     0          
O        O      0.564733333333     0.272100000000     0.097700000000     0          
O        O      0.393233333333     0.299100000000     0.332200000000     0          
T        Si     0.539333333333     0.292333333333     0.058400000000     0          
O        O      0.333333333333     0.206633333333     0.678200000000     0          
O        O      0.619766666667     0.218900000000     0.750000000000     0          
O        O      0.611300000000     0.166666666667     0.685500000000     0          
O        O      0.605433333333     0.231400000000     0.847700000000     0          
O        O      0.333333333333     0.293466666667     0.500000000000     0          
O        O      0.333333333333     0.000000000000     0.582250000000     0          
O        O      0.632433333333     0.059900000000     0.582200000000     0          
T        Si     0.625666666667     0.206000000000     0.808400000000     0          
T        Si     0.602333333333     0.269000000000     0.625000000000     0          
T        Si     0.333333333333     0.039733333333     0.561900000000     0          
O        O      0.460033333333     0.000000000000     0.928200000000     0          
O        O      0.447766666667     0.286433333333     0.500000000000     0          
O        O      0.500000000000     0.277966666667     0.935500000000     0          
O        O      0.435266666667     0.272100000000     0.597700000000     0          
O        O      0.373200000000     0.000000000000     0.750000000000     0          
O        O      0.333333333333     0.000000000000     0.832250000000     0          
O        O      0.606766666667     0.299100000000     0.832200000000     0          
T        Si     0.460666666667     0.292333333333     0.558400000000     0          
T        Si     0.397666666667     0.269000000000     0.875000000000     0          
T        Si     0.626933333333     0.000000000000     0.811900000000     0          
O        O      0.333333333333     0.126700000000     0.678200000000     0          
O        O      0.380233333333     0.114433333333     0.750000000000     0          
O        O      0.388700000000     0.166666666667     0.685500000000     0          
O        O      0.394566666667     0.101933333333     0.847700000000     0          
O        O      0.333333333333     0.039866666667     0.500000000000     0          
O        O      0.367566666667     0.273433333333     0.582200000000     0          
T        Si     0.374333333333     0.127333333333     0.808400000000     0          
T        Si     0.397666666667     0.064333333333     0.625000000000     0          
T        Si     0.333333333333     0.293600000000     0.561900000000     0          
O        O      0.539966666667     0.000000000000     0.928200000000     0          
O        O      0.552233333333     0.046900000000     0.500000000000     0          
O        O      0.500000000000     0.055366666667     0.935500000000     0          
O        O      0.564733333333     0.061233333333     0.597700000000     0          
O        O      0.626800000000     0.000000000000     0.750000000000     0          
O        O      0.393233333333     0.034233333333     0.832200000000     0          
T        Si     0.539333333333     0.041000000000     0.558400000000     0          
T        Si     0.602333333333     0.064333333333     0.875000000000     0          
T        Si     0.373066666667     0.000000000000     0.811900000000     0          
O        O      0.333333333333     0.126700000000     0.821800000000     0          
O        O      0.619766666667     0.114433333333     0.750000000000     0          
O        O      0.611300000000     0.166666666667     0.814500000000     0          
O        O      0.605433333333     0.101933333333     0.652300000000     0          
O        O      0.333333333333     0.000000000000     0.917750000000     0          
O        O      0.632433333333     0.273433333333     0.917800000000     0          
T        Si     0.625666666667     0.127333333333     0.691600000000     0          
T        Si     0.333333333333     0.293600000000     0.938100000000     0          
O        O      0.539966666667     0.000000000000     0.571800000000     0          
O        O      0.552233333333     0.286433333333     0.500000000000     0          
O        O      0.500000000000     0.277966666667     0.564500000000     0          
O        O      0.564733333333     0.272100000000     0.902300000000     0          
O        O      0.333333333333     0.000000000000     0.667750000000     0          
O        O      0.393233333333     0.299100000000     0.667800000000     0          
T        Si     0.539333333333     0.292333333333     0.941600000000     0          
T        Si     0.373066666667     0.000000000000     0.688100000000     0          
O        O      0.333333333333     0.206633333333     0.821800000000     0          
O        O      0.380233333333     0.218900000000     0.750000000000     0          
O        O      0.388700000000     0.166666666667     0.814500000000     0          
O        O      0.394566666667     0.231400000000     0.652300000000     0          
O        O      0.367566666667     0.059900000000     0.917800000000     0          
T        Si     0.374333333333     0.206000000000     0.691600000000     0          
T        Si     0.333333333333     0.039733333333     0.938100000000     0          
O        O      0.460033333333     0.000000000000     0.571800000000     0          
O        O      0.447766666667     0.046900000000     0.500000000000     0          
O        O      0.500000000000     0.055366666667     0.564500000000     0          
O        O      0.435266666667     0.061233333333     0.902300000000     0          
O        O      0.606766666667     0.034233333333     0.667800000000     0          
T        Si     0.460666666667     0.041000000000     0.941600000000     0          
T        Si     0.626933333333     0.000000000000     0.688100000000     0          
O        O      0.394566666667     0.101933333333     0.652300000000     0          
O        O      0.367566666667     0.273433333333     0.917800000000     0          
T        Si     0.374333333333     0.127333333333     0.691600000000     0          
T        Si     0.397666666667     0.064333333333     0.875000000000     0          
O        O      0.564733333333     0.061233333333     0.902300000000     0          
O        O      0.393233333333     0.034233333333     0.667800000000     0          
T        Si     0.539333333333     0.041000000000     0.941600000000     0          
T        Si     0.602333333333     0.064333333333     0.625000000000     0          
O        O      0.605433333333     0.231400000000     0.652300000000     0          
O        O      0.632433333333     0.059900000000     0.917800000000     0          
T        Si     0.625666666667     0.206000000000     0.691600000000     0          
T        Si     0.602333333333     0.269000000000     0.875000000000     0          
O        O      0.435266666667     0.272100000000     0.902300000000     0          
O        O      0.606766666667     0.299100000000     0.667800000000     0          
T        Si     0.460666666667     0.292333333333     0.941600000000     0          
T        Si     0.397666666667     0.269000000000     0.625000000000     0          
O        O      0.394566666667     0.231400000000     0.847700000000     0          
O        O      0.367566666667     0.059900000000     0.582200000000     0          
T        Si     0.374333333333     0.206000000000     0.808400000000     0          
O        O      0.435266666667     0.061233333333     0.597700000000     0          
O        O      0.606766666667     0.034233333333     0.832200000000     0          
T        Si     0.460666666667     0.041000000000     0.558400000000     0          
O        O      0.605433333333     0.101933333333     0.847700000000     0          
O        O      0.632433333333     0.273433333333     0.582200000000     0          
T        Si     0.625666666667     0.127333333333     0.808400000000     0          
O        O      0.564733333333     0.272100000000     0.597700000000     0          
O        O      0.393233333333     0.299100000000     0.832200000000     0          
T        Si     0.539333333333     0.292333333333     0.558400000000     0          
O        O      0.333333333333     0.539966666667     0.178200000000     0          
O        O      0.619766666667     0.552233333333     0.250000000000     0          
O        O      0.611300000000     0.500000000000     0.185500000000     0          
O        O      0.605433333333     0.564733333333     0.347700000000     0          
O        O      0.333333333333     0.626800000000     0.000000000000     0          
O        O      0.333333333333     0.333333333333     0.082250000000     0          
O        O      0.632433333333     0.393233333333     0.082200000000     0          
T        Si     0.625666666667     0.539333333333     0.308400000000     0          
T        Si     0.602333333333     0.602333333333     0.125000000000     0          
T        Si     0.333333333333     0.373066666667     0.061900000000     0          
O        O      0.460033333333     0.333333333333     0.428200000000     0          
O        O      0.447766666667     0.619766666667     0.000000000000     0          
O        O      0.500000000000     0.611300000000     0.435500000000     0          
O        O      0.435266666667     0.605433333333     0.097700000000     0          
O        O      0.373200000000     0.333333333333     0.250000000000     0          
O        O      0.333333333333     0.333333333333     0.332250000000     0          
O        O      0.606766666667     0.632433333333     0.332200000000     0          
T        Si     0.460666666667     0.625666666667     0.058400000000     0          
T        Si     0.397666666667     0.602333333333     0.375000000000     0          
T        Si     0.626933333333     0.333333333333     0.311900000000     0          
O        O      0.333333333333     0.460033333333     0.178200000000     0          
O        O      0.380233333333     0.447766666667     0.250000000000     0          
O        O      0.388700000000     0.500000000000     0.185500000000     0          
O        O      0.394566666667     0.435266666667     0.347700000000     0          
O        O      0.333333333333     0.373200000000     0.000000000000     0          
O        O      0.367566666667     0.606766666667     0.082200000000     0          
T        Si     0.374333333333     0.460666666667     0.308400000000     0          
T        Si     0.397666666667     0.397666666667     0.125000000000     0          
T        Si     0.333333333333     0.626933333333     0.061900000000     0          
O        O      0.539966666667     0.333333333333     0.428200000000     0          
O        O      0.552233333333     0.380233333333     0.000000000000     0          
O        O      0.500000000000     0.388700000000     0.435500000000     0          
O        O      0.564733333333     0.394566666667     0.097700000000     0          
O        O      0.626800000000     0.333333333333     0.250000000000     0          
O        O      0.393233333333     0.367566666667     0.332200000000     0          
T        Si     0.539333333333     0.374333333333     0.058400000000     0          
T        Si     0.602333333333     0.397666666667     0.375000000000     0          
T        Si     0.373066666667     0.333333333333     0.311900000000     0          
O        O      0.333333333333     0.460033333333     0.321800000000     0          
O        O      0.619766666667     0.447766666667     0.250000000000     0          
O        O      0.611300000000     0.500000000000     0.314500000000     0          
O        O      0.605433333333     0.435266666667     0.152300000000     0          
O        O      0.333333333333     0.333333333333     0.417750000000     0          
O        O      0.632433333333     0.606766666667     0.417800000000     0          
T        Si     0.625666666667     0.460666666667     0.191600000000     0          
T        Si     0.333333333333     0.626933333333     0.438100000000     0          
O        O      0.539966666667     0.333333333333     0.071800000000     0          
O        O      0.552233333333     0.619766666667     0.000000000000     0          
O        O      0.500000000000     0.611300000000     0.064500000000     0          
O        O      0.564733333333     0.605433333333     0.402300000000     0          
O        O      0.333333333333     0.333333333333     0.167750000000     0          
O        O      0.393233333333     0.632433333333     0.167800000000     0          
T        Si     0.539333333333     0.625666666667     0.441600000000     0          
T        Si     0.373066666667     0.333333333333     0.188100000000     0          
O        O      0.333333333333     0.539966666667     0.321800000000     0          
O        O      0.380233333333     0.552233333333     0.250000000000     0          
O        O      0.388700000000     0.500000000000     0.314500000000     0          
O        O      0.394566666667     0.564733333333     0.152300000000     0          
O        O      0.367566666667     0.393233333333     0.417800000000     0          
T        Si     0.374333333333     0.539333333333     0.191600000000     0          
T        Si     0.333333333333     0.373066666667     0.438100000000     0          
O        O      0.460033333333     0.333333333333     0.071800000000     0          
O        O      0.447766666667     0.380233333333     0.000000000000     0          
O        O      0.500000000000     0.388700000000     0.064500000000     0          
O        O      0.435266666667     0.394566666667     0.402300000000     0          
O        O      0.606766666667     0.367566666667     0.167800000000     0          
T        Si     0.460666666667     0.374333333333     0.441600000000     0          
T        Si     0.626933333333     0.333333333333     0.188100000000     0          
O        O      0.394566666667     0.435266666667     0.152300000000     0          
O        O      0.367566666667     0.606766666667     0.417800000000     0          
T        Si     0.374333333333     0.460666666667     0.191600000000     0          
T        Si     0.397666666667     0.397666666667     0.375000000000     0          
O        O      0.564733333333     0.394566666667     0.402300000000     0          
O        O      0.393233333333     0.367566666667     0.167800000000     0          
T        Si     0.539333333333     0.374333333333     0.441600000000     0          
T        Si     0.602333333333     0.397666666667     0.125000000000     0          
O        O      0.605433333333     0.564733333333     0.152300000000     0          
O        O      0.632433333333     0.393233333333     0.417800000000     0          
T        Si     0.625666666667     0.539333333333     0.191600000000     0          
T        Si     0.602333333333     0.602333333333     0.375000000000     0          
O        O      0.435266666667     0.605433333333     0.402300000000     0          
O        O      0.606766666667     0.632433333333     0.167800000000     0          
T        Si     0.460666666667     0.625666666667     0.441600000000     0          
T        Si     0.397666666667     0.602333333333     0.125000000000     0          
O        O      0.394566666667     0.564733333333     0.347700000000     0          
O        O      0.367566666667     0.393233333333     0.082200000000     0          
T        Si     0.374333333333     0.539333333333     0.308400000000     0          
O        O      0.435266666667     0.394566666667     0.097700000000     0          
O        O      0.606766666667     0.367566666667     0.332200000000     0          
T        Si     0.460666666667     0.374333333333     0.058400000000     0          
O        O      0.605433333333     0.435266666667     0.347700000000     0          
O        O      0.632433333333     0.606766666667     0.082200000000     0          
T        Si     0.625666666667     0.460666666667     0.308400000000     0          
O        O      0.564733333333     0.605433333333     0.097700000000     0          
O        O      0.393233333333     0.632433333333     0.332200000000     0          
T        Si     0.539333333333     0.625666666667     0.058400000000     0          
O        O      0.333333333333     0.539966666667     0.678200000000     0          
O        O      0.619766666667     0.552233333333     0.750000000000     0          
O        O      0.611300000000     0.500000000000     0.685500000000     0          
O        O      0.605433333333     0.564733333333     0.847700000000     0          
O        O      0.333333333333     0.626800000000     0.500000000000     0          
O        O      0.333333333333     0.333333333333     0.582250000000     0          
O        O      0.632433333333     0.393233333333     0.582200000000     0          
T        Si     0.625666666667     0.539333333333     0.808400000000     0          
T        Si     0.602333333333     0.602333333333     0.625000000000     0          
T        Si     0.333333333333     0.373066666667     0.561900000000     0          
O        O      0.460033333333     0.333333333333     0.928200000000     0          
O        O      0.447766666667     0.619766666667     0.500000000000     0          
O        O      0.500000000000     0.611300000000     0.935500000000     0          
O        O      0.435266666667     0.605433333333     0.597700000000     0          
O        O      0.373200000000     0.333333333333     0.750000000000     0          
O        O      0.333333333333     0.333333333333     0.832250000000     0          
O        O      0.606766666667     0.632433333333     0.832200000000     0          
T        Si     0.460666666667     0.625666666667     0.558400000000     0          
T        Si     0.397666666667     0.602333333333     0.875000000000     0          
T        Si     0.626933333333     0.333333333333     0.811900000000     0          
O        O      0.333333333333     0.460033333333     0.678200000000     0          
O        O      0.380233333333     0.447766666667     0.750000000000     0          
O        O      0.388700000000     0.500000000000     0.685500000000     0          
O        O      0.394566666667     0.435266666667     0.847700000000     0          
O        O      0.333333333333     0.373200000000     0.500000000000     0          
O        O      0.367566666667     0.606766666667     0.582200000000     0          
T        Si     0.374333333333     0.460666666667     0.808400000000     0          
T        Si     0.397666666667     0.397666666667     0.625000000000     0          
T        Si     0.333333333333     0.626933333333     0.561900000000     0          
O        O      0.539966666667     0.333333333333     0.928200000000     0          
O        O      0.552233333333     0.380233333333     0.500000000000     0          
O        O      0.500000000000     0.388700000000     0.935500000000     0          
O        O      0.564733333333     0.394566666667     0.597700000000     0          
O        O      0.626800000000     0.333333333333     0.750000000000     0          
O        O      0.393233333333     0.367566666667     0.832200000000     0          
T        Si     0.539333333333     0.374333333333     0.558400000000     0          
T        Si     0.602333333333     0.397666666667     0.875000000000     0          
T        Si     0.373066666667     0.333333333333     0.811900000000     0          
O        O      0.333333333333     0.460033333333     0.821800000000     0          
O        O      0.619766666667     0.447766666667     0.750000000000     0          
O        O      0.611300000000     0.500000000000     0.814500000000     0          
O        O      0.605433333333     0.435266666667     0.652300000000     0          
O        O      0.333333333333     0.333333333333     0.917750000000     0          
O        O      0.632433333333     0.606766666667     0.917800000000     0          
T        Si     0.625666666667     0.460666666667     0.691600000000     0          
T        Si     0.333333333333     0.626933333333     0.938100000000     0          
O        O      0.539966666667     0.333333333333     0.571800000000     0          
O        O      0.552233333333     0.619766666667     0.500000000000     0          
O        O      0.500000000000     0.611300000000     0.564500000000     0          
O        O      0.564733333333     0.605433333333     0.902300000000     0          
O        O      0.333333333333     0.333333333333     0.667750000000     0          
O        O      0.393233333333     0.632433333333     0.667800000000     0          
T        Si     0.539333333333     0.625666666667     0.941600000000     0          
T        Si     0.373066666667     0.333333333333     0.688100000000     0          
O        O      0.333333333333     0.539966666667     0.821800000000     0          
O        O      0.380233333333     0.552233333333     0.750000000000     0          
O        O      0.388700000000     0.500000000000     0.814500000000     0          
O        O      0.394566666667     0.564733333333     0.652300000000     0          
O        O      0.367566666667     0.393233333333     0.917800000000     0          
T        Si     0.374333333333     0.539333333333     0.691600000000     0          
T        Si     0.333333333333     0.373066666667     0.938100000000     0          
O        O      0.460033333333     0.333333333333     0.571800000000     0          
O        O      0.447766666667     0.380233333333     0.500000000000     0          
O        O      0.500000000000     0.388700000000     0.564500000000     0          
O        O      0.435266666667     0.394566666667     0.902300000000     0          
O        O      0.606766666667     0.367566666667     0.667800000000     0          
T        Si     0.460666666667     0.374333333333     0.941600000000     0          
T        Si     0.626933333333     0.333333333333     0.688100000000     0          
O        O      0.394566666667     0.435266666667     0.652300000000     0          
O        O      0.367566666667     0.606766666667     0.917800000000     0          
T        Si     0.374333333333     0.460666666667     0.691600000000     0          
T        Si     0.397666666667     0.397666666667     0.875000000000     0          
O        O      0.564733333333     0.394566666667     0.902300000000     0          
O        O      0.393233333333     0.367566666667     0.667800000000     0          
T        Si     0.539333333333     0.374333333333     0.941600000000     0          
T        Si     0.602333333333     0.397666666667     0.625000000000     0          
O        O      0.605433333333     0.564733333333     0.652300000000     0          
O        O      0.632433333333     0.393233333333     0.917800000000     0          
T        Si     0.625666666667     0.539333333333     0.691600000000     0          
T        Si     0.602333333333     0.602333333333     0.875000000000     0          
O        O      0.435266666667     0.605433333333     0.902300000000     0          
O        O      0.606766666667     0.632433333333     0.667800000000     0          
T        Si     0.460666666667     0.625666666667     0.941600000000     0          
T        Si     0.397666666667     0.602333333333     0.625000000000     0          
O        O      0.394566666667     0.564733333333     0.847700000000     0          
O        O      0.367566666667     0.393233333333     0.582200000000     0          
T        Si     0.374333333333     0.539333333333     0.808400000000     0          
O        O      0.435266666667     0.394566666667     0.597700000000     0          
O        O      0.606766666667     0.367566666667     0.832200000000     0          
T        Si     0.460666666667     0.374333333333     0.558400000000     0          
O        O      0.605433333333     0.435266666667     0.847700000000     0          
O        O      0.632433333333     0.606766666667     0.582200000000     0          
T        Si     0.625666666667     0.460666666667     0.808400000000     0          
O        O      0.564733333333     0.605433333333     0.597700000000     0          
O        O      0.393233333333     0.632433333333     0.832200000000     0          
T        Si     0.539333333333     0.625666666667     0.558400000000     0          
O        O      0.333333333333     0.873300000000     0.178200000000     0          
O        O      0.619766666667     0.885566666667     0.250000000000     0          
O        O      0.611300000000     0.833333333333     0.185500000000     0          
O        O      0.605433333333     0.898066666667     0.347700000000     0          
O        O      0.333333333333     0.960133333333     0.000000000000     0          
O        O      0.333333333333     0.666666666667     0.082250000000     0          
O        O      0.632433333333     0.726566666667     0.082200000000     0          
T        Si     0.625666666667     0.872666666667     0.308400000000     0          
T        Si     0.602333333333     0.935666666667     0.125000000000     0          
T        Si     0.333333333333     0.706400000000     0.061900000000     0          
O        O      0.460033333333     0.666666666667     0.428200000000     0          
O        O      0.447766666667     0.953100000000     0.000000000000     0          
O        O      0.500000000000     0.944633333333     0.435500000000     0          
O        O      0.435266666667     0.938766666667     0.097700000000     0          
O        O      0.373200000000     0.666666666667     0.250000000000     0          
O        O      0.333333333333     0.666666666667     0.332250000000     0          
O        O      0.606766666667     0.965766666667     0.332200000000     0          
T        Si     0.460666666667     0.959000000000     0.058400000000     0          
T        Si     0.397666666667     0.935666666667     0.375000000000     0          
T        Si     0.626933333333     0.666666666667     0.311900000000     0          
O        O      0.333333333333     0.793366666667     0.178200000000     0          
O        O      0.380233333333     0.781100000000     0.250000000000     0          
O        O      0.388700000000     0.833333333333     0.185500000000     0          
O        O      0.394566666667     0.768600000000     0.347700000000     0          
O        O      0.333333333333     0.706533333333     0.000000000000     0          
O        O      0.367566666667     0.940100000000     0.082200000000     0          
T        Si     0.374333333333     0.794000000000     0.308400000000     0          
T        Si     0.397666666667     0.731000000000     0.125000000000     0          
T        Si     0.333333333333     0.960266666667     0.061900000000     0          
O        O      0.539966666667     0.666666666667     0.428200000000     0          
O        O      0.552233333333     0.713566666667     0.000000000000     0          
O        O      0.500000000000     0.722033333333     0.435500000000     0          
O        O      0.564733333333     0.727900000000     0.097700000000     0          
O        O      0.626800000000     0.666666666667     0.250000000000     0          
O        O      0.393233333333     0.700900000000     0.332200000000     0          
T        Si     0.539333333333     0.707666666667     0.058400000000     0          
T        Si     0.602333333333     0.731000000000     0.375000000000     0          
T        Si     0.373066666667     0.666666666667     0.311900000000     0          
O        O      0.333333333333     0.793366666667     0.321800000000     0          
O        O      0.619766666667     0.781100000000     0.250000000000     0          
O        O      0.611300000000     0.833333333333     0.314500000000     0          
O        O      0.605433333333     0.768600000000     0.152300000000     0          
O        O      0.333333333333     0.666666666667     0.417750000000     0          
O        O      0.632433333333     0.940100000000     0.417800000000     0          
T        Si     0.625666666667     0.794000000000     0.191600000000     0          
T        Si     0.333333333333     0.960266666667     0.438100000000     0          
O        O      0.539966666667     0.666666666667     0.071800000000     0          
O        O      0.552233333333     0.953100000000     0.000000000000     0          
O        O      0.500000000000     0.944633333333     0.064500000000     0          
O        O      0.564733333333     0.938766666667     0.402300000000     0          
O        O      0.333333333333     0.666666666667     0.167750000000     0          
O        O      0.393233333333     0.965766666667     0.167800000000     0          
T        Si     0.539333333333     0.959000000000     0.441600000000     0          
T        Si     0.373066666667     0.666666666667     0.188100000000     0          
O        O      0.333333333333     0.873300000000     0.321800000000     0          
O        O      0.380233333333     0.885566666667     0.250000000000     0          
O        O      0.388700000000     0.833333333333     0.314500000000     0          
O        O      0.394566666667     0.898066666667     0.152300000000     0          
O        O      0.367566666667     0.726566666667     0.417800000000     0          
T        Si     0.374333333333     0.872666666667     0.191600000000     0          
T        Si     0.333333333333     0.706400000000     0.438100000000     0          
O        O      0.460033333333     0.666666666667     0.071800000000     0          
O        O      0.447766666667     0.713566666667     0.000000000000     0          
O        O      0.500000000000     0.722033333333     0.064500000000     0          
O        O      0.435266666667     0.727900000000     0.402300000000     0          
O        O      0.606766666667     0.700900000000     0.167800000000     0          
T        Si     0.460666666667     0.707666666667     0.441600000000     0          
T        Si     0.626933333333     0.666666666667     0.188100000000     0          
O        O      0.394566666667     0.768600000000     0.152300000000     0          
O        O      0.367566666667     0.940100000000     0.417800000000     0          
T        Si     0.374333333333     0.794000000000     0.191600000000     0          
T        Si     0.397666666667     0.731000000000     0.375000000000     0          
O        O      0.564733333333     0.727900000000     0.402300000000     0          
O        O      0.393233333333     0.700900000000     0.167800000000     0          
T        Si     0.539333333333     0.707666666667     0.441600000000     0          
T        Si     0.602333333333     0.731000000000     0.125000000000     0          
O        O      0.605433333333     0.898066666667     0.152300000000     0          
O        O      0.632433333333     0.726566666667     0.417800000000     0          
T        Si     0.625666666667     0.872666666667     0.191600000000     0          
T        Si     0.602333333333     0.935666666667     0.375000000000     0          
O        O      0.435266666667     0.938766666667     0.402300000000     0          
O        O      0.606766666667     0.965766666667     0.167800000000     0          
T        Si     0.460666666667     0.959000000000     0.441600000000     0          
T        Si     0.397666666667     0.935666666667     0.125000000000     0          
O        O      0.394566666667     0.898066666667     0.347700000000     0          
O        O      0.367566666667     0.726566666667     0.082200000000     0          
T        Si     0.374333333333     0.872666666667     0.308400000000     0          
O        O      0.435266666667     0.727900000000     0.097700000000     0          
O        O      0.606766666667     0.700900000000     0.332200000000     0          
T        Si     0.460666666667     0.707666666667     0.058400000000     0          
O        O      0.605433333333     0.768600000000     0.347700000000     0          
O        O      0.632433333333     0.940100000000     0.082200000000     0          
T        Si     0.625666666667     0.794000000000     0.308400000000     0          
O        O      0.564733333333     0.938766666667     0.097700000000     0          
O        O      0.393233333333     0.965766666667     0.332200000000     0          
T        Si     0.539333333333     0.959000000000     0.058400000000     0          
O        O      0.333333333333     0.873300000000     0.678200000000     0          
O        O      0.619766666667     0.885566666667     0.750000000000     0          
O        O      0.611300000000     0.833333333333     0.685500000000     0          
O        O      0.605433333333     0.898066666667     0.847700000000     0          
O        O      0.333333333333     0.960133333333     0.500000000000     0          
O        O      0.333333333333     0.666666666667     0.582250000000     0          
O        O      0.632433333333     0.726566666667     0.582200000000     0          
T        Si     0.625666666667     0.872666666667     0.808400000000     0          
T        Si     0.602333333333     0.935666666667     0.625000000000     0          
T        Si     0.333333333333     0.706400000000     0.561900000000     0          
O        O      0.460033333333     0.666666666667     0.928200000000     0          
O        O      0.447766666667     0.953100000000     0.500000000000     0          
O        O      0.500000000000     0.944633333333     0.935500000000     0          
O        O      0.435266666667     0.938766666667     0.597700000000     0          
O        O      0.373200000000     0.666666666667     0.750000000000     0          
O        O      0.333333333333     0.666666666667     0.832250000000     0          
O        O      0.606766666667     0.965766666667     0.832200000000     0          
T        Si     0.460666666667     0.959000000000     0.558400000000     0          
T        Si     0.397666666667     0.935666666667     0.875000000000     0          
T        Si     0.626933333333     0.666666666667     0.811900000000     0          
O        O      0.333333333333     0.793366666667     0.678200000000     0          
O        O      0.380233333333     0.781100000000     0.750000000000     0          
O        O      0.388700000000     0.833333333333     0.685500000000     0          
O        O      0.394566666667     0.768600000000     0.847700000000     0          
O        O      0.333333333333     0.706533333333     0.500000000000     0          
O        O      0.367566666667     0.940100000000     0.582200000000     0          
T        Si     0.374333333333     0.794000000000     0.808400000000     0          
T        Si     0.397666666667     0.731000000000     0.625000000000     0          
T        Si     0.333333333333     0.960266666667     0.561900000000     0          
O        O      0.539966666667     0.666666666667     0.928200000000     0          
O        O      0.552233333333     0.713566666667     0.500000000000     0          
O        O      0.500000000000     0.722033333333     0.935500000000     0          
O        O      0.564733333333     0.727900000000     0.597700000000     0          
O        O      0.626800000000     0.666666666667     0.750000000000     0          
O        O      0.393233333333     0.700900000000     0.832200000000     0          
T        Si     0.539333333333     0.707666666667     0.558400000000     0          
T        Si     0.602333333333     0.731000000000     0.875000000000     0          
T        Si     0.373066666667     0.666666666667     0.811900000000     0          
O        O      0.333333333333     0.793366666667     0.821800000000     0          
O        O      0.619766666667     0.781100000000     0.750000000000     0          
O        O      0.611300000000     0.833333333333     0.814500000000     0          
O        O      0.605433333333     0.768600000000     0.652300000000     0          
O        O      0.333333333333     0.666666666667     0.917750000000     0          
O        O      0.632433333333     0.940100000000     0.917800000000     0          
T        Si     0.625666666667     0.794000000000     0.691600000000     0          
T        Si     0.333333333333     0.960266666667     0.938100000000     0          
O        O      0.539966666667     0.666666666667     0.571800000000     0          
O        O      0.552233333333     0.953100000000     0.500000000000     0          
O        O      0.500000000000     0.944633333333     0.564500000000     0          
O        O      0.564733333333     0.938766666667     0.902300000000     0          
O        O      0.333333333333     0.666666666667     0.667750000000     0          
O        O      0.393233333333     0.965766666667     0.667800000000     0          
T        Si     0.539333333333     0.959000000000     0.941600000000     0          
T        Si     0.373066666667     0.666666666667     0.688100000000     0          
O        O      0.333333333333     0.873300000000     0.821800000000     0          
O        O      0.380233333333     0.885566666667     0.750000000000     0          
O        O      0.388700000000     0.833333333333     0.814500000000     0          
O        O      0.394566666667     0.898066666667     0.652300000000     0          
O        O      0.367566666667     0.726566666667     0.917800000000     0          
T        Si     0.374333333333     0.872666666667     0.691600000000     0          
T        Si     0.333333333333     0.706400000000     0.938100000000     0          
O        O      0.460033333333     0.666666666667     0.571800000000     0          
O        O      0.447766666667     0.713566666667     0.500000000000     0          
O        O      0.500000000000     0.722033333333     0.564500000000     0          
O        O      0.435266666667     0.727900000000     0.902300000000     0          
O        O      0.606766666667     0.700900000000     0.667800000000     0          
T        Si     0.460666666667     0.707666666667     0.941600000000     0          
T        Si     0.626933333333     0.666666666667     0.688100000000     0          
O        O      0.394566666667     0.768600000000     0.652300000000     0          
O        O      0.367566666667     0.940100000000     0.917800000000     0          
T        Si     0.374333333333     0.794000000000     0.691600000000     0          
T        Si     0.397666666667     0.731000000000     0.875000000000     0          
O        O      0.564733333333     0.727900000000     0.902300000000     0          
O        O      0.393233333333     0.700900000000     0.667800000000     0          
T        Si     0.539333333333     0.707666666667     0.941600000000     0          
T        Si     0.602333333333     0.731000000000     0.625000000000     0          
O        O      0.605433333333     0.898066666667     0.652300000000     0          
O        O      0.632433333333     0.726566666667     0.917800000000     0          
T        Si     0.625666666667     0.872666666667     0.691600000000     0          
T        Si     0.602333333333     0.935666666667     0.875000000000     0          
O        O      0.435266666667     0.938766666667     0.902300000000     0          
O        O      0.606766666667     0.965766666667     0.667800000000     0          
T        Si     0.460666666667     0.959000000000     0.941600000000     0          
T        Si     0.397666666667     0.935666666667     0.625000000000     0          
O        O      0.394566666667     0.898066666667     0.847700000000     0          
O        O      0.367566666667     0.726566666667     0.582200000000     0          
T        Si     0.374333333333     0.872666666667     0.808400000000     0          
O        O      0.435266666667     0.727900000000     0.597700000000     0          
O        O      0.606766666667     0.700900000000     0.832200000000     0          
T        Si     0.460666666667     0.707666666667     0.558400000000     0          
O        O      0.605433333333     0.768600000000     0.847700000000     0          
O        O      0.632433333333     0.940100000000     0.582200000000     0          
T        Si     0.625666666667     0.794000000000     0.808400000000     0          
O        O      0.564733333333     0.938766666667     0.597700000000     0          
O        O      0.393233333333     0.965766666667     0.832200000000     0          
T        Si     0.539333333333     0.959000000000     0.558400000000     0          
O        O      0.666666666667     0.206633333333     0.178200000000     0          
O        O      0.953100000000     0.218900000000     0.250000000000     0          
O        O      0.944633333333     0.166666666667     0.185500000000     0          
O        O      0.938766666667     0.231400000000     0.347700000000     0          
O        O      0.666666666667     0.293466666667     0.000000000000     0          
O        O      0.666666666667     0.000000000000     0.082250000000     0          
O        O      0.965766666667     0.059900000000     0.082200000000     0          
T        Si     0.959000000000     0.206000000000     0.308400000000     0          
T        Si     0.935666666667     0.269000000000     0.125000000000     0          
T        Si     0.666666666667     0.039733333333     0.061900000000     0          
O        O      0.793366666667     0.000000000000     0.428200000000     0          
O        O      0.781100000000     0.286433333333     0.000000000000     0          
O        O      0.833333333333     0.277966666667     0.435500000000     0          
O        O      0.768600000000     0.272100000000     0.097700000000     0          
O        O      0.706533333333     0.000000000000     0.250000000000     0          
O        O      0.666666666667     0.000000000000     0.332250000000     0          
O        O      0.940100000000     0.299100000000     0.332200000000     0          
T        Si     0.794000000000     0.292333333333     0.058400000000     0          
T        Si     0.731000000000     0.269000000000     0.375000000000     0          
T        Si     0.960266666667     0.000000000000     0.311900000000     0          
O        O      0.666666666667     0.126700000000     0.178200000000     0          
O        O      0.713566666667     0.114433333333     0.250000000000     0          
O        O      0.722033333333     0.166666666667     0.185500000000     0          
O        O      0.727900000000     0.101933333333     0.347700000000     0          
O        O      0.666666666667     0.039866666667     0.000000000000     0          
O        O      0.700900000000     0.273433333333     0.082200000000     0          
T        Si     0.707666666667     0.127333333333     0.308400000000     0          
T        Si     0.731000000000     0.064333333333     0.125000000000     0          
T        Si     0.666666666667     0.293600000000     0.061900000000     0          
O        O      0.873300000000     0.000000000000     0.428200000000     0          
O        O      0.885566666667     0.046900000000     0.000000000000     0          
O        O      0.833333333333     0.055366666667     0.435500000000     0          
O        O      0.898066666667     0.061233333333     0.097700000000     0          
O        O      0.960133333333     0.000000000000     0.250000000000     0          
O        O      0.726566666667     0.034233333333     0.332200000000     0          
T        Si     0.872666666667     0.041000000000     0.058400000000     0          
T        Si     0.935666666667     0.064333333333     0.375000000000     0          
T        Si     0.706400000000     0.000000000000     0.311900000000     0          
O        O      0.666666666667     0.126700000000     0.321800000000     0          
O        O      0.953100000000     0.114433333333     0.250000000000     0          
O        O      0.944633333333     0.166666666667     0.314500000000     0          
O        O      0.938766666667     0.101933333333     0.152300000000     0          
O        O      0.666666666667     0.000000000000     0.417750000000     0          
O        O      0.965766666667     0.273433333333     0.417800000000     0          
T        Si     0.959000000000     0.127333333333     0.191600000000     0          
T        Si     0.666666666667     0.293600000000     0.438100000000     0          
O        O      0.873300000000     0.000000000000     0.071800000000     0          
O        O      0.885566666667     0.286433333333     0.000000000000     0          
O        O      0.833333333333     0.277966666667     0.064500000000     0          
O        O      0.898066666667     0.272100000000     0.402300000000     0          
O        O      0.666666666667     0.000000000000     0.167750000000     0          
O        O      0.726566666667     0.299100000000     0.167800000000     0          
T        Si     0.872666666667     0.292333333333     0.441600000000     0          
T        Si     0.706400000000     0.000000000000     0.188100000000     0          
O        O      0.666666666667     0.206633333333     0.321800000000     0          
O        O      0.713566666667     0.218900000000     0.250000000000     0          
O        O      0.722033333333     0.166666666667     0.314500000000     0          
O        O      0.727900000000     0.231400000000     0.152300000000     0          
O        O      0.700900000000     0.059900000000     0.417800000000     0          
T        Si     0.707666666667     0.206000000000     0.191600000000     0          
T        Si     0.666666666667     0.039733333333     0.438100000000     0          
O        O      0.793366666667     0.000000000000     0.071800000000     0          
O        O      0.781100000000     0.046900000000     0.000000000000     0          
O        O      0.833333333333     0.055366666667     0.064500000000     0          
O        O      0.768600000000     0.061233333333     0.402300000000     0          
O        O      0.940100000000     0.034233333333     0.167800000000     0          
T        Si     0.794000000000     0.041000000000     0.441600000000     0          
T        Si     0.960266666667     0.000000000000     0.188100000000     0          
O        O      0.727900000000     0.101933333333     0.152300000000     0          
O        O      0.700900000000     0.273433333333     0.417800000000     0          
T        Si     0.707666666667     0.127333333333     0.191600000000     0          
T        Si     0.731000000000     0.064333333333     0.375000000000     0          
O        O      0.898066666667     0.061233333333     0.402300000000     0          
O        O      0.726566666667     0.034233333333     0.167800000000     0          
T        Si     0.872666666667     0.041000000000     0.441600000000     0          
T        Si     0.935666666667     0.064333333333     0.125000000000     0          
O        O      0.938766666667     0.231400000000     0.152300000000     0          
O        O      0.965766666667     0.059900000000     0.417800000000     0          
T        Si     0.959000000000     0.206000000000     0.191600000000     0          
T        Si     0.935666666667     0.269000000000     0.375000000000     0          
O        O      0.768600000000     0.272100000000     0.402300000000     0          
O        O      0.940100000000     0.299100000000     0.167800000000     0          
T        Si     0.794000000000     0.292333333333     0.441600000000     0          
T        Si     0.731000000000     0.269000000000     0.125000000000     0          
O        O      0.727900000000     0.231400000000     0.347700000000     0          
O        O      0.700900000000     0.059900000000     0.082200000000     0          
T        Si     0.707666666667     0.206000000000     0.308400000000     0          
O        O      0.768600000000     0.061233333333     0.097700000000     0          
O        O      0.940100000000     0.034233333333     0.332200000000     0          
T        Si     0.794000000000     0.041000000000     0.058400000000     0          
O        O      0.938766666667     0.101933333333     0.347700000000     0          
O        O      0.965766666667     0.273433333333     0.082200000000     0          
T        Si     0.959000000000     0.127333333333     0.308400000000     0          
O        O      0.898066666667     0.272100000000     0.097700000000     0          
O        O      0.726566666667     0.299100000000     0.332200000000     0          
T        Si     0.872666666667     0.292333333333     0.058400000000     0          
O        O      0.666666666667     0.206633333333     0.678200000000     0          
O        O      0.953100000000     0.218900000000     0.750000000000     0          
O        O      0.944633333333     0.166666666667     0.685500000000     0          
O        O      0.938766666667     0.231400000000     0.847700000000     0          
O        O      0.666666666667     0.293466666667     0.500000000000     0          
O        O      0.666666666667     0.000000000000     0.582250000000     0          
O        O      0.965766666667     0.059900000000     0.582200000000     0          
T        Si     0.959000000000     0.206000000000     0.808400000000     0          
T        Si     0.935666666667     0.269000000000     0.625000000000     0          
T        Si     0.666666666667     0.039733333333     0.561900000000     0          
O        O      0.793366666667     0.000000000000     0.928200000000     0          
O        O      0.781100000000     0.286433333333     0.500000000000     0          
O        O      0.833333333333     0.277966666667     0.935500000000     0          
O        O      0.768600000000     0.272100000000     0.597700000000     0          
O        O      0.706533333333     0.000000000000     0.750000000000     0          
O        O      0.666666666667     0.000000000000     0.832250000000     0          
O        O      0.940100000000     0.299100000000     0.832200000000     0          
T        Si     0.794000000000     0.292333333333     0.558400000000     0          
T        Si     0.731000000000     0.269000000000     0.875000000000     0          
T        Si     0.960266666667     0.000000000000     0.811900000000     0          
O        O      0.666666666667     0.126700000000     0.678200000000     0          
O        O      0.713566666667     0.114433333333     0.750000000000     0          
O        O      0.722033333333     0.166666666667     0.685500000000     0          
O        O      0.727900000000     0.101933333333     0.847700000000     0          
O        O      0.666666666667     0.039866666667     0.500000000000     0          
O        O      0.700900000000     0.273433333333     0.582200000000     0          
T        Si     0.707666666667     0.127333333333     0.808400000000     0          
T        Si     0.731000000000     0.064333333333     0.625000000000     0          
T        Si     0.666666666667     0.293600000000     0.561900000000     0          
O        O      0.873300000000     0.000000000000     0.928200000000     0          
O        O      0.885566666667     0.046900000000     0.500000000000     0          
O        O      0.833333333333     0.055366666667     0.935500000000     0          
O        O      0.898066666667     0.061233333333     0.597700000000     0          
O        O      0.960133333333     0.000000000000     0.750000000000     0          
O        O      0.726566666667     0.034233333333     0.832200000000     0          
T        Si     0.872666666667     0.041000000000     0.558400000000     0          
T        Si     0.935666666667     0.064333333333     0.875000000000     0          
T        Si     0.706400000000     0.000000000000     0.811900000000     0          
O        O      0.666666666667     0.126700000000     0.821800000000     0          
O        O      0.953100000000     0.114433333333     0.750000000000     0          
O        O      0.944633333333     0.166666666667     0.814500000000     0          
O        O      0.938766666667     0.101933333333     0.652300000000     0          
O        O      0.666666666667     0.000000000000     0.917750000000     0          
O        O      0.965766666667     0.273433333333     0.917800000000     0          
T        Si     0.959000000000     0.127333333333     0.691600000000     0          
T        Si     0.666666666667     0.293600000000     0.938100000000     0          
O        O      0.873300000000     0.000000000000     0.571800000000     0          
O        O      0.885566666667     0.286433333333     0.500000000000     0          
O        O      0.833333333333     0.277966666667     0.564500000000     0          
O        O      0.898066666667     0.272100000000     0.902300000000     0          
O        O      0.666666666667     0.000000000000     0.667750000000     0          
O        O      0.726566666667     0.299100000000     0.667800000000     0          
T        Si     0.872666666667     0.292333333333     0.941600000000     0          
T        Si     0.706400000000     0.000000000000     0.688100000000     0          
O        O      0.666666666667     0.206633333333     0.821800000000     0          
O        O      0.713566666667     0.218900000000     0.750000000000     0          
O        O      0.722033333333     0.166666666667     0.814500000000     0          
O        O      0.727900000000     0.231400000000     0.652300000000     0          
O        O      0.700900000000     0.059900000000     0.917800000000     0          
T        Si     0.707666666667     0.206000000000     0.691600000000     0          
T        Si     0.666666666667     0.039733333333     0.938100000000     0          
O        O      0.793366666667     0.000000000000     0.571800000000     0          
O        O      0.781100000000     0.046900000000     0.500000000000     0          
O        O      0.833333333333     0.055366666667     0.564500000000     0          
O        O      0.768600000000     0.061233333333     0.902300000000     0          
O        O      0.940100000000     0.034233333333     0.667800000000     0          
T        Si     0.794000000000     0.041000000000     0.941600000000     0          
T        Si     0.960266666667     0.000000000000     0.688100000000     0          
O        O      0.727900000000     0.101933333333     0.652300000000     0          
O        O      0.700900000000     0.273433333333     0.917800000000     0          
T        Si     0.707666666667     0.127333333333     0.691600000000     0          
T        Si     0.731000000000     0.064333333333     0.875000000000     0          
O        O      0.898066666667     0.061233333333     0.902300000000     0          
O        O      0.726566666667     0.034233333333     0.667800000000     0          
T        Si     0.872666666667     0.041000000000     0.941600000000     0          
T        Si     0.935666666667     0.064333333333     0.625000000000     0          
O        O      0.938766666667     0.231400000000     0.652300000000     0          
O        O      0.965766666667     0.059900000000     0.917800000000     0          
T        Si     0.959000000000     0.206000000000     0.691600000000     0          
T        Si     0.935666666667     0.269000000000     0.875000000000     0          
O        O      0.768600000000     0.272100000000     0.902300000000     0          
O        O      0.940100000000     0.299100000000     0.667800000000     0          
T        Si     0.794000000000     0.292333333333     0.941600000000     0          
T        Si     0.731000000000     0.269000000000     0.625000000000     0          
O        O      0.727900000000     0.231400000000     0.847700000000     0          
O        O      0.700900000000     0.059900000000     0.582200000000     0          
T        Si     0.707666666667     0.206000000000     0.808400000000     0          
O        O      0.768600000000     0.061233333333     0.597700000000     0          
O        O      0.940100000000     0.034233333333     0.832200000000     0          
T        Si     0.794000000000     0.041000000000     0.558400000000     0          
O        O      0.938766666667     0.101933333333     0.847700000000     0          
O        O      0.965766666667     0.273433333333     0.582200000000     0          
T        Si     0.959000000000     0.127333333333     0.808400000000     0          
O        O      0.898066666667     0.272100000000     0.597700000000     0          
O        O      0.726566666667     0.299100000000     0.832200000000     0          
T        Si     0.872666666667     0.292333333333     0.558400000000     0          
O        O      0.666666666667     0.539966666667     0.178200000000     0          
O        O      0.953100000000     0.552233333333     0.250000000000     0          
O        O      0.944633333333     0.500000000000     0.185500000000     0          
O        O      0.938766666667     0.564733333333     0.347700000000     0          
O        O      0.666666666667     0.626800000000     0.000000000000     0          
O        O      0.666666666667     0.333333333333     0.082250000000     0          
O        O      0.965766666667     0.393233333333     0.082200000000     0          
T        Si     0.959000000000     0.539333333333     0.308400000000     0          
T        Si     0.935666666667     0.602333333333     0.125000000000     0          
T        Si     0.666666666667     0.373066666667     0.061900000000     0          
O        O      0.793366666667     0.333333333333     0.428200000000     0          
O        O      0.781100000000     0.619766666667     0.000000000000     0          
O        O      0.833333333333     0.611300000000     0.435500000000     0          
O        O      0.768600000000     0.605433333333     0.097700000000     0          
O        O      0.706533333333     0.333333333333     0.250000000000     0          
O        O      0.666666666667     0.333333333333     0.332250000000     0          
O        O      0.940100000000     0.632433333333     0.332200000000     0          
T        Si     0.794000000000     0.625666666667     0.058400000000     0          
T        Si     0.731000000000     0.602333333333     0.375000000000     0          
T        Si     0.960266666667     0.333333333333     0.311900000000     0          
O        O      0.666666666667     0.460033333333     0.178200000000     0          
O        O      0.713566666667     0.447766666667     0.250000000000     0          
O        O      0.722033333333     0.500000000000     0.185500000000     0          
O        O      0.727900000000     0.435266666667     0.347700000000     0          
O        O      0.666666666667     0.373200000000     0.000000000000     0          
O        O      0.700900000000     0.606766666667     0.082200000000     0          
T        Si     0.707666666667     0.460666666667     0.308400000000     0          
T        Si     0.731000000000     0.397666666667     0.125000000000     0          
T        Si     0.666666666667     0.626933333333     0.061900000000     0          
O        O      0.873300000000     0.333333333333     0.428200000000     0          
O        O      0.885566666667     0.380233333333     0.000000000000     0          
O        O      0.833333333333     0.388700000000     0.435500000000     0          
O        O      0.898066666667     0.394566666667     0.097700000000     0          
O        O      0.960133333333     0.333333333333     0.250000000000     0          
O        O      0.726566666667     0.367566666667     0.332200000000     0          
T        Si     0.872666666667     0.374333333333     0.058400000000     0          
T        Si     0.935666666667     0.397666666667     0.375000000000     0          
T        Si     0.706400000000     0.333333333333     0.311900000000     0          
O        O      0.666666666667     0.460033333333     0.321800000000     0          
O        O      0.953100000000     0.447766666667     0.250000000000     0          
O        O      0.944633333333     0.500000000000     0.314500000000     0          
O        O      0.938766666667     0.435266666667     0.152300000000     0          
O        O      0.666666666667     0.333333333333     0.417750000000     0          
O        O      0.965766666667     0.606766666667     0.417800000000     0          
T        Si     0.959000000000     0.460666666667     0.191600000000     0          
T        Si     0.666666666667     0.626933333333     0.438100000000     0          
O        O      0.873300000000     0.333333333333     0.071800000000     0          
O        O      0.885566666667     0.619766666667     0.000000000000     0          
O        O      0.833333333333     0.611300000000     0.064500000000     0          
O        O      0.898066666667     0.605433333333     0.402300000000     0          
O        O      0.666666666667     0.333333333333     0.167750000000     0          
O        O      0.726566666667     0.632433333333     0.167800000000     0          
T        Si     0.872666666667     0.625666666667     0.441600000000     0          
T        Si     0.706400000000     0.333333333333     0.188100000000     0          
O        O      0.666666666667     0.539966666667     0.321800000000     0          
O        O      0.713566666667     0.552233333333     0.250000000000     0          
O        O      0.722033333333     0.500000000000     0.314500000000     0          
O        O      0.727900000000     0.564733333333     0.152300000000     0          
O        O      0.700900000000     0.393233333333     0.417800000000     0          
T        Si     0.707666666667     0.539333333333     0.191600000000     0          
T        Si     0.666666666667     0.373066666667     0.438100000000     0          
O        O      0.793366666667     0.333333333333     0.071800000000     0          
O        O      0.781100000000     0.380233333333     0.000000000000     0          
O        O      0.833333333333     0.388700000000     0.064500000000     0          
O        O      0.768600000000     0.394566666667     0.402300000000     0          
O        O      0.940100000000     0.367566666667     0.167800000000     0          
T        Si     0.794000000000     0.374333333333     0.441600000000     0          
T        Si     0.960266666667     0.333333333333     0.188100000000     0          
O        O      0.727900000000     0.435266666667     0.152300000000     0          
O        O      0.700900000000     0.606766666667     0.417800000000     0          
T        Si     0.707666666667     0.460666666667     0.191600000000     0          
T        Si     0.731000000000     0.397666666667     0.375000000000     0          
O        O      0.898066666667     0.394566666667     0.402300000000     0          
O        O      0.726566666667     0.367566666667     0.167800000000     0          
T        Si     0.872666666667     0.374333333333     0.441600000000     0          
T        Si     0.935666666667     0.397666666667     0.125000000000     0          
O        O      0.938766666667     0.564733333333     0.152300000000     0          
O        O      0.965766666667     0.393233333333     0.417800000000     0          
T        Si     0.959000000000     0.539333333333     0.191600000000     0          
T        Si     0.935666666667     0.602333333333     0.375000000000     0          
O        O      0.768600000000     0.605433333333     0.402300000000     0          
O        O      0.940100000000     0.632433333333     0.167800000000     0          
T        Si     0.794000000000     0.625666666667     0.441600000000     0          
T        Si     0.731000000000     0.602333333333     0.125000000000     0          
O        O      0.727900000000     0.564733333333     0.347700000000     0          
O        O      0.700900000000     0.393233333333     0.082200000000     0          
T        Si     0.707666666667     0.539333333333     0.308400000000     0          
O        O      0.768600000000     0.394566666667     0.097700000000     0          
O        O      0.940100000000     0.367566666667     0.332200000000     0          
T        Si     0.794000000000     0.374333333333     0.058400000000     0          
O        O      0.938766666667     0.435266666667     0.347700000000     0          
O        O      0.965766666667     0.606766666667     0.082200000000     0          
T        Si     0.959000000000     0.460666666667     0.308400000000     0          
O        O      0.898066666667     0.605433333333     0.097700000000     0          
O        O      0.726566666667     0.632433333333     0.332200000000     0          
T        Si     0.872666666667     0.625666666667     0.058400000000     0          
O        O      0.666666666667     0.539966666667     0.678200000000     0          
O        O      0.953100000000     0.552233333333     0.750000000000     0          
O        O      0.944633333333     0.500000000000     0.685500000000     0          
O        O      0.938766666667     0.564733333333     0.847700000000     0          
O        O      0.666666666667     0.626800000000     0.500000000000     0          
O        O      0.666666666667     0.333333333333     0.582250000000     0          
O        O      0.965766666667     0.393233333333     0.582200000000     0          
T        Si     0.959000000000     0.539333333333     0.808400000000     0          
T        Si     0.935666666667     0.602333333333     0.625000000000     0          
T        Si     0.666666666667     0.373066666667     0.561900000000     0          
O        O      0.793366666667     0.333333333333     0.928200000000     0          
O        O      0.781100000000     0.619766666667     0.500000000000     0          
O        O      0.833333333333     0.611300000000     0.935500000000     0          
O        O      0.768600000000     0.605433333333     0.597700000000     0          
O        O      0.706533333333     0.333333333333     0.750000000000     0          
O        O      0.666666666667     0.333333333333     0.832250000000     0          
O        O      0.940100000000     0.632433333333     0.832200000000     0          
T        Si     0.794000000000     0.625666666667     0.558400000000     0          
T        Si     0.731000000000     0.602333333333     0.875000000000     0          
T        Si     0.960266666667     0.333333333333     0.811900000000     0          
O        O      0.666666666667     0.460033333333     0.678200000000     0          
O        O      0.713566666667     0.447766666667     0.750000000000     0          
O        O      0.722033333333     0.500000000000     0.685500000000     0          
O        O      0.727900000000     0.435266666667     0.847700000000     0          
O        O      0.666666666667     0.373200000000     0.500000000000     0          
O        O      0.700900000000     0.606766666667     0.582200000000     0          
T        Si     0.707666666667     0.460666666667     0.808400000000     0          
T        Si     0.731000000000     0.397666666667     0.625000000000     0          
T        Si     0.666666666667     0.626933333333     0.561900000000     0          
O        O      0.873300000000     0.333333333333     0.928200000000     0          
O        O      0.885566666667     0.380233333333     0.500000000000     0          
O        O      0.833333333333     0.388700000000     0.935500000000     0          
O        O      0.898066666667     0.394566666667     0.597700000000     0          
O        O      0.960133333333     0.333333333333     0.750000000000     0          
O        O      0.726566666667     0.367566666667     0.832200000000     0          
T        Si     0.872666666667     0.374333333333     0.558400000000     0          
T        Si     0.935666666667     0.397666666667     0.875000000000     0          
T        Si     0.706400000000     0.333333333333     0.811900000000     0          
O        O      0.666666666667     0.460033333333     0.821800000000     0          
O        O      0.953100000000     0.447766666667     0.750000000000     0          
O        O      0.944633333333     0.500000000000     0.814500000000     0          
O        O      0.938766666667     0.435266666667     0.652300000000     0          
O        O      0.666666666667     0.333333333333     0.917750000000     0          
O        O      0.965766666667     0.606766666667     0.917800000000     0          
T        Si     0.959000000000     0.460666666667     0.691600000000     0          
T        Si     0.666666666667     0.626933333333     0.938100000000     0          
O        O      0.873300000000     0.333333333333     0.571800000000     0          
O        O      0.885566666667     0.619766666667     0.500000000000     0          
O        O      0.833333333333     0.611300000000     0.564500000000     0          
O        O      0.898066666667     0.605433333333     0.902300000000     0          
O        O      0.666666666667     0.333333333333     0.667750000000     0          
O        O      0.726566666667     0.632433333333     0.667800000000     0          
T        Si     0.872666666667     0.625666666667     0.941600000000     0          
T        Si     0.706400000000     0.333333333333     0.688100000000     0          
O        O      0.666666666667     0.539966666667     0.821800000000     0          
O        O      0.713566666667     0.552233333333     0.750000000000     0          
O        O      0.722033333333     0.500000000000     0.814500000000     0          
O        O      0.727900000000     0.564733333333     0.652300000000     0          
O        O      0.700900000000     0.393233333333     0.917800000000     0          
T        Si     0.707666666667     0.539333333333     0.691600000000     0          
T        Si     0.666666666667     0.373066666667     0.938100000000     0          
O        O      0.793366666667     0.333333333333     0.571800000000     0          
O        O      0.781100000000     0.380233333333     0.500000000000     0          
O        O      0.833333333333     0.388700000000     0.564500000000     0          
O        O      0.768600000000     0.394566666667     0.902300000000     0          
O        O      0.940100000000     0.367566666667     0.667800000000     0          
T        Si     0.794000000000     0.374333333333     0.941600000000     0          
T        Si     0.960266666667     0.333333333333     0.688100000000     0          
O        O      0.727900000000     0.435266666667     0.652300000000     0          
O        O      0.700900000000     0.606766666667     0.917800000000     0          
T        Si     0.707666666667     0.460666666667     0.691600000000     0          
T        Si     0.731000000000     0.397666666667     0.875000000000     0          
O        O      0.898066666667     0.394566666667     0.902300000000     0          
O        O      0.726566666667     0.367566666667     0.667800000000     0          
T        Si     0.872666666667     0.374333333333     0.941600000000     0          
T        Si     0.935666666667     0.397666666667     0.625000000000     0          
O        O      0.938766666667     0.564733333333     0.652300000000     0          
O        O      0.965766666667     0.393233333333     0.917800000000     0          
T        Si     0.959000000000     0.539333333333     0.691600000000     0          
T        Si     0.935666666667     0.602333333333     0.875000000000     0          
O        O      0.768600000000     0.605433333333     0.902300000000     0          
O        O      0.940100000000     0.632433333333     0.667800000000     0          
T        Si     0.794000000000     0.625666666667     0.941600000000     0          
T        Si     0.731000000000     0.602333333333     0.625000000000     0          
O        O      0.727900000000     0.564733333333     0.847700000000     0          
O        O      0.700900000000     0.393233333333     0.582200000000     0          
T        Si     0.707666666667     0.539333333333     0.808400000000     0          
O        O      0.768600000000     0.394566666667     0.597700000000     0          
O        O      0.940100000000     0.367566666667     0.832200000000     0          
T        Si     0.794000000000     0.374333333333     0.558400000000     0          
O        O      0.938766666667     0.435266666667     0.847700000000     0          
O        O      0.965766666667     0.606766666667     0.582200000000     0          
T        Si     0.959000000000     0.460666666667     0.808400000000     0          
O        O      0.898066666667     0.605433333333     0.597700000000     0          
O        O      0.726566666667     0.632433333333     0.832200000000     0          
T        Si     0.872666666667     0.625666666667     0.558400000000     0          
O        O      0.666666666667     0.873300000000     0.178200000000     0          
O        O      0.953100000000     0.885566666667     0.250000000000     0          
O        O      0.944633333333     0.833333333333     0.185500000000     0          
O        O      0.938766666667     0.898066666667     0.347700000000     0          
O        O      0.666666666667     0.960133333333     0.000000000000     0          
O        O      0.666666666667     0.666666666667     0.082250000000     0          
O        O      0.965766666667     0.726566666667     0.082200000000     0          
T        Si     0.959000000000     0.872666666667     0.308400000000     0          
T        Si     0.935666666667     0.935666666667     0.125000000000     0          
T        Si     0.666666666667     0.706400000000     0.061900000000     0          
O        O      0.793366666667     0.666666666667     0.428200000000     0          
O        O      0.781100000000     0.953100000000     0.000000000000     0          
O        O      0.833333333333     0.944633333333     0.435500000000     0          
O        O      0.768600000000     0.938766666667     0.097700000000     0          
O        O      0.706533333333     0.666666666667     0.250000000000     0          
O        O      0.666666666667     0.666666666667     0.332250000000     0          
O        O      0.940100000000     0.965766666667     0.332200000000     0          
T        Si     0.794000000000     0.959000000000     0.058400000000     0          
T        Si     0.731000000000     0.935666666667     0.375000000000     0          
T        Si     0.960266666667     0.666666666667     0.311900000000     0          
O        O      0.666666666667     0.793366666667     0.178200000000     0          
O        O      0.713566666667     0.781100000000     0.250000000000     0          
O        O      0.722033333333     0.833333333333     0.185500000000     0          
O        O      0.727900000000     0.768600000000     0.347700000000     0          
O        O      0.666666666667     0.706533333333     0.000000000000     0          
O        O      0.700900000000     0.940100000000     0.082200000000     0          
T        Si     0.707666666667     0.794000000000     0.308400000000     0          
T        Si     0.731000000000     0.731000000000     0.125000000000     0          
T        Si     0.666666666667     0.960266666667     0.061900000000     0          
O        O      0.873300000000     0.666666666667     0.428200000000     0          
O        O      0.885566666667     0.713566666667     0.000000000000     0          
O        O      0.833333333333     0.722033333333     0.435500000000     0          
O        O      0.898066666667     0.727900000000     0.097700000000     0          
O        O      0.960133333333     0.666666666667     0.250000000000     0          
O        O      0.726566666667     0.700900000000     0.332200000000     0          
T        Si     0.872666666667     0.707666666667     0.058400000000     0          
T        Si     0.935666666667     0.731000000000     0.375000000000     0          
T        Si     0.706400000000     0.666666666667     0.311900000000     0          
O        O      0.666666666667     0.793366666667     0.321800000000     0          
O        O      0.953100000000     0.781100000000     0.250000000000     0          
O        O      0.944633333333     0.833333333333     0.314500000000     0          
O        O      0.938766666667     0.768600000000     0.152300000000     0          
O        O      0.666666666667     0.666666666667     0.417750000000     0          
O        O      0.965766666667     0.940100000000     0.417800000000     0          
T        Si     0.959000000000     0.794000000000     0.191600000000     0          
T        Si     0.666666666667     0.960266666667     0.438100000000     0          
O        O      0.873300000000     0.666666666667     0.071800000000     0          
O        O      0.885566666667     0.953100000000     0.000000000000     0          
O        O      0.833333333333     0.944633333333     0.064500000000     0          
O        O      0.898066666667     0.938766666667     0.402300000000     0          
O        O      0.666666666667     0.666666666667     0.167750000000     0          
O        O      0.726566666667     0.965766666667     0.167800000000     0          
T        Si     0.872666666667     0.959000000000     0.441600000000     0          
T        Si     0.706400000000     0.666666666667     0.188100000000     0          
O        O      0.666666666667     0.873300000000     0.321800000000     0          
O        O      0.713566666667     0.885566666667     0.250000000000     0          
O        O      0.722033333333     0.833333333333     0.314500000000     0          
O        O      0.727900000000     0.898066666667     0.152300000000     0          
O        O      0.700900000000     0.726566666667     0.417800000000     0          
T        Si     0.707666666667     0.872666666667     0.191600000000     0          
T        Si     0.666666666667     0.706400000000     0.438100000000     0          
O        O      0.793366666667     0.666666666667     0.071800000000     0          
O        O      0.781100000000     0.713566666667     0.000000000000     0          
O        O      0.833333333333     0.722033333333     0.064500000000     0          
O        O      0.768600000000     0.727900000000     0.402300000000     0          
O        O      0.940100000000     0.700900000000     0.167800000000     0          
T        Si     0.794000000000     0.707666666667     0.441600000000     0          
T        Si     0.960266666667     0.666666666667     0.188100000000     0          
O        O      0.727900000000     0.768600000000     0.152300000000     0          
O        O      0.700900000000     0.940100000000     0.417800000000     0          
T        Si     0.707666666667     0.794000000000     0.191600000000     0          
T        Si     0.731000000000     0.731000000000     0.375000000000     0          
O        O      0.898066666667     0.727900000000     0.402300000000     0          
O        O      0.726566666667     0.700900000000     0.167800000000     0          
T        Si     0.872666666667     0.707666666667     0.441600000000     0          
T        Si     0.935666666667     0.731000000000     0.125000000000     0          
O        O      0.938766666667     0.898066666667     0.152300000000     0          
O        O      0.965766666667     0.726566666667     0.417800000000     0          
T        Si     0.959000000000     0.872666666667     0.191600000000     0          
T        Si     0.935666666667     0.935666666667     0.375000000000     0          
O        O      0.768600000000     0.938766666667     0.402300000000     0          
O        O      0.940100000000     0.965766666667     0.167800000000     0          
T        Si     0.794000000000     0.959000000000     0.441600000000     0          
T        Si     0.731000000000     0.935666666667     0.125000000000     0          
O        O      0.727900000000     0.898066666667     0.347700000000     0          
O        O      0.700900000000     0.726566666667     0.082200000000     0          
T        Si     0.707666666667     0.872666666667     0.308400000000     0          
O        O      0.768600000000     0.727900000000     0.097700000000     0          
O        O      0.940100000000     0.700900000000     0.332200000000     0          
T        Si     0.794000000000     0.707666666667     0.058400000000     0          
O        O      0.938766666667     0.768600000000     0.347700000000     0          
O        O      0.965766666667     0.940100000000     0.082200000000     0          
T        Si     0.959000000000     0.794000000000     0.308400000000     0          
O        O      0.898066666667     0.938766666667     0.097700000000     0          
O        O      0.726566666667     0.965766666667     0.332200000000     0          
T        Si     0.872666666667     0.959000000000     0.058400000000     0          
O        O      0.666666666667     0.873300000000     0.678200000000     0          
O        O      0.953100000000     0.885566666667     0.750000000000     0          
O        O      0.944633333333     0.833333333333     0.685500000000     0          
O        O      0.938766666667     0.898066666667     0.847700000000     0          
O        O      0.666666666667     0.960133333333     0.500000000000     0          
O        O      0.666666666667     0.666666666667     0.582250000000     0          
O        O      0.965766666667     0.726566666667     0.582200000000     0          
T        Si     0.959000000000     0.872666666667     0.808400000000     0          
T        Si     0.935666666667     0.935666666667     0.625000000000     0          
T        Si     0.666666666667     0.706400000000     0.561900000000     0          
O        O      0.793366666667     0.666666666667     0.928200000000     0          
O        O      0.781100000000     0.953100000000     0.500000000000     0          
O        O      0.833333333333     0.944633333333     0.935500000000     0          
O        O      0.768600000000     0.938766666667     0.597700000000     0          
O        O      0.706533333333     0.666666666667     0.750000000000     0          
O        O      0.666666666667     0.666666666667     0.832250000000     0          
O        O      0.940100000000     0.965766666667     0.832200000000     0          
T        Si     0.794000000000     0.959000000000     0.558400000000     0          
T        Si     0.731000000000     0.935666666667     0.875000000000     0          
T        Si     0.960266666667     0.666666666667     0.811900000000     0          
O        O      0.666666666667     0.793366666667     0.678200000000     0          
O        O      0.713566666667     0.781100000000     0.750000000000     0          
O        O      0.722033333333     0.833333333333     0.685500000000     0          
O        O      0.727900000000     0.768600000000     0.847700000000     0          
O        O      0.666666666667     0.706533333333     0.500000000000     0          
O        O      0.700900000000     0.940100000000     0.582200000000     0          
T        Si     0.707666666667     0.794000000000     0.808400000000     0          
T        Si     0.731000000000     0.731000000000     0.625000000000     0          
T        Si     0.666666666667     0.960266666667     0.561900000000     0          
O        O      0.873300000000     0.666666666667     0.928200000000     0          
O        O      0.885566666667     0.713566666667     0.500000000000     0          
O        O      0.833333333333     0.722033333333     0.935500000000     0          
O        O      0.898066666667     0.727900000000     0.597700000000     0          
O        O      0.960133333333     0.666666666667     0.750000000000     0          
O        O      0.726566666667     0.700900000000     0.832200000000     0          
T        Si     0.872666666667     0.707666666667     0.558400000000     0          
T        Si     0.935666666667     0.731000000000     0.875000000000     0          
T        Si     0.706400000000     0.666666666667     0.811900000000     0          
O        O      0.666666666667     0.793366666667     0.821800000000     0          
O        O      0.953100000000     0.781100000000     0.750000000000     0          
O        O      0.944633333333     0.833333333333     0.814500000000     0          
O        O      0.938766666667     0.768600000000     0.652300000000     0          
O        O      0.666666666667     0.666666666667     0.917750000000     0          
O        O      0.965766666667     0.940100000000     0.917800000000     0          
T        Si     0.959000000000     0.794000000000     0.691600000000     0          
T        Si     0.666666666667     0.960266666667     0.938100000000     0          
O        O      0.873300000000     0.666666666667     0.571800000000     0          
O        O      0.885566666667     0.953100000000     0.500000000000     0          
O        O      0.833333333333     0.944633333333     0.564500000000     0          
O        O      0.898066666667     0.938766666667     0.902300000000     0          
O        O      0.666666666667     0.666666666667     0.667750000000     0          
O        O      0.726566666667     0.965766666667     0.667800000000     0          
T        Si     0.872666666667     0.959000000000     0.941600000000     0          
T        Si     0.706400000000     0.666666666667     0.688100000000     0          
O        O      0.666666666667     0.873300000000     0.821800000000     0          
O        O      0.713566666667     0.885566666667     0.750000000000     0          
O        O      0.722033333333     0.833333333333     0.814500000000     0          
O        O      0.727900000000     0.898066666667     0.652300000000     0          
O        O      0.700900000000     0.726566666667     0.917800000000     0          
T        Si     0.707666666667     0.872666666667     0.691600000000     0          
T        Si     0.666666666667     0.706400000000     0.938100000000     0          
O        O      0.793366666667     0.666666666667     0.571800000000     0          
O        O      0.781100000000     0.713566666667     0.500000000000     0          
O        O      0.833333333333     0.722033333333     0.564500000000     0          
O        O      0.768600000000     0.727900000000     0.902300000000     0          
O        O      0.940100000000     0.700900000000     0.667800000000     0          
T        Si     0.794000000000     0.707666666667     0.941600000000     0          
T        Si     0.960266666667     0.666666666667     0.688100000000     0          
O        O      0.727900000000     0.768600000000     0.652300000000     0          
O        O      0.700900000000     0.940100000000     0.917800000000     0          
T        Si     0.707666666667     0.794000000000     0.691600000000     0          
T        Si     0.731000000000     0.731000000000     0.875000000000     0          
O        O      0.898066666667     0.727900000000     0.902300000000     0          
O        O      0.726566666667     0.700900000000     0.667800000000     0          
T        Si     0.872666666667     0.707666666667     0.941600000000     0          
T        Si     0.935666666667     0.731000000000     0.625000000000     0          
O        O      0.938766666667     0.898066666667     0.652300000000     0          
O        O      0.965766666667     0.726566666667     0.917800000000     0          
T        Si     0.959000000000     0.872666666667     0.691600000000     0          
T        Si     0.935666666667     0.935666666667     0.875000000000     0          
O        O      0.768600000000     0.938766666667     0.902300000000     0          
O        O      0.940100000000     0.965766666667     0.667800000000     0          
T        Si     0.794000000000     0.959000000000     0.941600000000     0          
T        Si     0.731000000000     0.935666666667     0.625000000000     0          
O        O      0.727900000000     0.898066666667     0.847700000000     0          
O        O      0.700900000000     0.726566666667     0.582200000000     0          
T        Si     0.707666666667     0.872666666667     0.808400000000     0          
O        O      0.768600000000     0.727900000000     0.597700000000     0          
O        O      0.940100000000     0.700900000000     0.832200000000     0          
T        Si     0.794000000000     0.707666666667     0.558400000000     0          
O        O      0.938766666667     0.768600000000     0.847700000000     0          
O        O      0.965766666667     0.940100000000     0.582200000000     0          
T        Si     0.959000000000     0.794000000000     0.808400000000     0          
O        O      0.898066666667     0.938766666667     0.597700000000     0          
O        O      0.726566666667     0.965766666667     0.832200000000     0          
T        Si     0.872666666667     0.959000000000     0.558400000000     0          


