data_zeolite

_audit_creation_method RASPA-1.0
_audit_creation_date 2021-6-8
_audit_author_name ''

_cell_length_a    12.548
_cell_length_b    12.548
_cell_length_c    20.789
_cell_angle_alpha 90
_cell_angle_beta  90
_cell_angle_gamma 120
_cell_volume      51025.3

_symmetry_cell_setting          hexagonal
_symmetry_space_group_name_Hall 'P 1'
_symmetry_space_group_name_H-M  'P 1'
_symmetry_Int_Tables_number     1

_symmetry_equiv_pos_as_xyz 'x,y,z'

loop_
_atom_site_label
_atom_site_type_symbol
_atom_site_fract_x
_atom_site_fract_y
_atom_site_fract_z
_atom_site_charge
T        Si     0.193900000000     0.223533333333     0.062700000000     0          
T        Si     0.082200000000     0.332166666667     0.125000000000     0          
T        Si     0.082600000000     0.000000000000     0.000000000000     0          
T        Si     0.303700000000     0.193900000000     0.312700000000     0          
T        Si     0.083366666667     0.082200000000     0.375000000000     0          
T        Si     0.082600000000     0.082600000000     0.250000000000     0          
T        Si     0.109800000000     0.303700000000     0.062700000000     0          
T        Si     0.001166666667     0.083366666667     0.125000000000     0          
T        Si     0.000000000000     0.082600000000     0.000000000000     0          
T        Si     0.139433333333     0.109800000000     0.312700000000     0          
T        Si     0.251133333333     0.001166666667     0.375000000000     0          
T        Si     0.250733333333     0.000000000000     0.250000000000     0          
T        Si     0.029633333333     0.139433333333     0.062700000000     0          
T        Si     0.249966666667     0.251133333333     0.125000000000     0          
T        Si     0.250733333333     0.250733333333     0.000000000000     0          
T        Si     0.223533333333     0.029633333333     0.312700000000     0          
T        Si     0.332166666667     0.249966666667     0.375000000000     0          
T        Si     0.000000000000     0.250733333333     0.250000000000     0          
T        Si     0.109800000000     0.139433333333     0.187300000000     0          
T        Si     0.001166666667     0.251133333333     0.125000000000     0          
T        Si     0.303700000000     0.109800000000     0.437300000000     0          
T        Si     0.083366666667     0.001166666667     0.375000000000     0          
T        Si     0.193900000000     0.303700000000     0.187300000000     0          
T        Si     0.082200000000     0.083366666667     0.125000000000     0          
T        Si     0.223533333333     0.193900000000     0.437300000000     0          
T        Si     0.332166666667     0.082200000000     0.375000000000     0          
T        Si     0.029633333333     0.223533333333     0.187300000000     0          
T        Si     0.249966666667     0.332166666667     0.125000000000     0          
T        Si     0.139433333333     0.029633333333     0.437300000000     0          
T        Si     0.251133333333     0.249966666667     0.375000000000     0          
T        Si     0.139433333333     0.109800000000     0.437300000000     0          
T        Si     0.250733333333     0.000000000000     0.000000000000     0          
T        Si     0.029633333333     0.139433333333     0.187300000000     0          
T        Si     0.250733333333     0.250733333333     0.250000000000     0          
T        Si     0.223533333333     0.029633333333     0.437300000000     0          
T        Si     0.000000000000     0.250733333333     0.000000000000     0          
T        Si     0.193900000000     0.223533333333     0.187300000000     0          
T        Si     0.082600000000     0.000000000000     0.250000000000     0          
T        Si     0.303700000000     0.193900000000     0.437300000000     0          
T        Si     0.082600000000     0.082600000000     0.000000000000     0          
T        Si     0.109800000000     0.303700000000     0.187300000000     0          
T        Si     0.000000000000     0.082600000000     0.250000000000     0          
T        Si     0.223533333333     0.193900000000     0.312700000000     0          
T        Si     0.029633333333     0.223533333333     0.062700000000     0          
T        Si     0.139433333333     0.029633333333     0.312700000000     0          
T        Si     0.109800000000     0.139433333333     0.062700000000     0          
T        Si     0.303700000000     0.109800000000     0.312700000000     0          
T        Si     0.193900000000     0.303700000000     0.062700000000     0          
T        Si     0.193900000000     0.223533333333     0.562700000000     0          
T        Si     0.082200000000     0.332166666667     0.625000000000     0          
T        Si     0.082600000000     0.000000000000     0.500000000000     0          
T        Si     0.303700000000     0.193900000000     0.812700000000     0          
T        Si     0.083366666667     0.082200000000     0.875000000000     0          
T        Si     0.082600000000     0.082600000000     0.750000000000     0          
T        Si     0.109800000000     0.303700000000     0.562700000000     0          
T        Si     0.001166666667     0.083366666667     0.625000000000     0          
T        Si     0.000000000000     0.082600000000     0.500000000000     0          
T        Si     0.139433333333     0.109800000000     0.812700000000     0          
T        Si     0.251133333333     0.001166666667     0.875000000000     0          
T        Si     0.250733333333     0.000000000000     0.750000000000     0          
T        Si     0.029633333333     0.139433333333     0.562700000000     0          
T        Si     0.249966666667     0.251133333333     0.625000000000     0          
T        Si     0.250733333333     0.250733333333     0.500000000000     0          
T        Si     0.223533333333     0.029633333333     0.812700000000     0          
T        Si     0.332166666667     0.249966666667     0.875000000000     0          
T        Si     0.000000000000     0.250733333333     0.750000000000     0          
T        Si     0.109800000000     0.139433333333     0.687300000000     0          
T        Si     0.001166666667     0.251133333333     0.625000000000     0          
T        Si     0.303700000000     0.109800000000     0.937300000000     0          
T        Si     0.083366666667     0.001166666667     0.875000000000     0          
T        Si     0.193900000000     0.303700000000     0.687300000000     0          
T        Si     0.082200000000     0.083366666667     0.625000000000     0          
T        Si     0.223533333333     0.193900000000     0.937300000000     0          
T        Si     0.332166666667     0.082200000000     0.875000000000     0          
T        Si     0.029633333333     0.223533333333     0.687300000000     0          
T        Si     0.249966666667     0.332166666667     0.625000000000     0          
T        Si     0.139433333333     0.029633333333     0.937300000000     0          
T        Si     0.251133333333     0.249966666667     0.875000000000     0          
T        Si     0.139433333333     0.109800000000     0.937300000000     0          
T        Si     0.250733333333     0.000000000000     0.500000000000     0          
T        Si     0.029633333333     0.139433333333     0.687300000000     0          
T        Si     0.250733333333     0.250733333333     0.750000000000     0          
T        Si     0.223533333333     0.029633333333     0.937300000000     0          
T        Si     0.000000000000     0.250733333333     0.500000000000     0          
T        Si     0.193900000000     0.223533333333     0.687300000000     0          
T        Si     0.082600000000     0.000000000000     0.750000000000     0          
T        Si     0.303700000000     0.193900000000     0.937300000000     0          
T        Si     0.082600000000     0.082600000000     0.500000000000     0          
T        Si     0.109800000000     0.303700000000     0.687300000000     0          
T        Si     0.000000000000     0.082600000000     0.750000000000     0          
T        Si     0.223533333333     0.193900000000     0.812700000000     0          
T        Si     0.029633333333     0.223533333333     0.562700000000     0          
T        Si     0.139433333333     0.029633333333     0.812700000000     0          
T        Si     0.109800000000     0.139433333333     0.562700000000     0          
T        Si     0.303700000000     0.109800000000     0.812700000000     0          
T        Si     0.193900000000     0.303700000000     0.562700000000     0          
T        Si     0.193900000000     0.556866666667     0.062700000000     0          
T        Si     0.082200000000     0.665500000000     0.125000000000     0          
T        Si     0.082600000000     0.333333333333     0.000000000000     0          
T        Si     0.303700000000     0.527233333333     0.312700000000     0          
T        Si     0.083366666667     0.415533333333     0.375000000000     0          
T        Si     0.082600000000     0.415933333333     0.250000000000     0          
T        Si     0.109800000000     0.637033333333     0.062700000000     0          
T        Si     0.001166666667     0.416700000000     0.125000000000     0          
T        Si     0.000000000000     0.415933333333     0.000000000000     0          
T        Si     0.139433333333     0.443133333333     0.312700000000     0          
T        Si     0.251133333333     0.334500000000     0.375000000000     0          
T        Si     0.250733333333     0.333333333333     0.250000000000     0          
T        Si     0.029633333333     0.472766666667     0.062700000000     0          
T        Si     0.249966666667     0.584466666667     0.125000000000     0          
T        Si     0.250733333333     0.584066666667     0.000000000000     0          
T        Si     0.223533333333     0.362966666667     0.312700000000     0          
T        Si     0.332166666667     0.583300000000     0.375000000000     0          
T        Si     0.000000000000     0.584066666667     0.250000000000     0          
T        Si     0.109800000000     0.472766666667     0.187300000000     0          
T        Si     0.001166666667     0.584466666667     0.125000000000     0          
T        Si     0.303700000000     0.443133333333     0.437300000000     0          
T        Si     0.083366666667     0.334500000000     0.375000000000     0          
T        Si     0.193900000000     0.637033333333     0.187300000000     0          
T        Si     0.082200000000     0.416700000000     0.125000000000     0          
T        Si     0.223533333333     0.527233333333     0.437300000000     0          
T        Si     0.332166666667     0.415533333333     0.375000000000     0          
T        Si     0.029633333333     0.556866666667     0.187300000000     0          
T        Si     0.249966666667     0.665500000000     0.125000000000     0          
T        Si     0.139433333333     0.362966666667     0.437300000000     0          
T        Si     0.251133333333     0.583300000000     0.375000000000     0          
T        Si     0.139433333333     0.443133333333     0.437300000000     0          
T        Si     0.250733333333     0.333333333333     0.000000000000     0          
T        Si     0.029633333333     0.472766666667     0.187300000000     0          
T        Si     0.250733333333     0.584066666667     0.250000000000     0          
T        Si     0.223533333333     0.362966666667     0.437300000000     0          
T        Si     0.000000000000     0.584066666667     0.000000000000     0          
T        Si     0.193900000000     0.556866666667     0.187300000000     0          
T        Si     0.082600000000     0.333333333333     0.250000000000     0          
T        Si     0.303700000000     0.527233333333     0.437300000000     0          
T        Si     0.082600000000     0.415933333333     0.000000000000     0          
T        Si     0.109800000000     0.637033333333     0.187300000000     0          
T        Si     0.000000000000     0.415933333333     0.250000000000     0          
T        Si     0.223533333333     0.527233333333     0.312700000000     0          
T        Si     0.029633333333     0.556866666667     0.062700000000     0          
T        Si     0.139433333333     0.362966666667     0.312700000000     0          
T        Si     0.109800000000     0.472766666667     0.062700000000     0          
T        Si     0.303700000000     0.443133333333     0.312700000000     0          
T        Si     0.193900000000     0.637033333333     0.062700000000     0          
T        Si     0.193900000000     0.556866666667     0.562700000000     0          
T        Si     0.082200000000     0.665500000000     0.625000000000     0          
T        Si     0.082600000000     0.333333333333     0.500000000000     0          
T        Si     0.303700000000     0.527233333333     0.812700000000     0          
T        Si     0.083366666667     0.415533333333     0.875000000000     0          
T        Si     0.082600000000     0.415933333333     0.750000000000     0          
T        Si     0.109800000000     0.637033333333     0.562700000000     0          
T        Si     0.001166666667     0.416700000000     0.625000000000     0          
T        Si     0.000000000000     0.415933333333     0.500000000000     0          
T        Si     0.139433333333     0.443133333333     0.812700000000     0          
T        Si     0.251133333333     0.334500000000     0.875000000000     0          
T        Si     0.250733333333     0.333333333333     0.750000000000     0          
T        Si     0.029633333333     0.472766666667     0.562700000000     0          
T        Si     0.249966666667     0.584466666667     0.625000000000     0          
T        Si     0.250733333333     0.584066666667     0.500000000000     0          
T        Si     0.223533333333     0.362966666667     0.812700000000     0          
T        Si     0.332166666667     0.583300000000     0.875000000000     0          
T        Si     0.000000000000     0.584066666667     0.750000000000     0          
T        Si     0.109800000000     0.472766666667     0.687300000000     0          
T        Si     0.001166666667     0.584466666667     0.625000000000     0          
T        Si     0.303700000000     0.443133333333     0.937300000000     0          
T        Si     0.083366666667     0.334500000000     0.875000000000     0          
T        Si     0.193900000000     0.637033333333     0.687300000000     0          
T        Si     0.082200000000     0.416700000000     0.625000000000     0          
T        Si     0.223533333333     0.527233333333     0.937300000000     0          
T        Si     0.332166666667     0.415533333333     0.875000000000     0          
T        Si     0.029633333333     0.556866666667     0.687300000000     0          
T        Si     0.249966666667     0.665500000000     0.625000000000     0          
T        Si     0.139433333333     0.362966666667     0.937300000000     0          
T        Si     0.251133333333     0.583300000000     0.875000000000     0          
T        Si     0.139433333333     0.443133333333     0.937300000000     0          
T        Si     0.250733333333     0.333333333333     0.500000000000     0          
T        Si     0.029633333333     0.472766666667     0.687300000000     0          
T        Si     0.250733333333     0.584066666667     0.750000000000     0          
T        Si     0.223533333333     0.362966666667     0.937300000000     0          
T        Si     0.000000000000     0.584066666667     0.500000000000     0          
T        Si     0.193900000000     0.556866666667     0.687300000000     0          
T        Si     0.082600000000     0.333333333333     0.750000000000     0          
T        Si     0.303700000000     0.527233333333     0.937300000000     0          
T        Si     0.082600000000     0.415933333333     0.500000000000     0          
T        Si     0.109800000000     0.637033333333     0.687300000000     0          
T        Si     0.000000000000     0.415933333333     0.750000000000     0          
T        Si     0.223533333333     0.527233333333     0.812700000000     0          
T        Si     0.029633333333     0.556866666667     0.562700000000     0          
T        Si     0.139433333333     0.362966666667     0.812700000000     0          
T        Si     0.109800000000     0.472766666667     0.562700000000     0          
T        Si     0.303700000000     0.443133333333     0.812700000000     0          
T        Si     0.193900000000     0.637033333333     0.562700000000     0          
T        Si     0.193900000000     0.890200000000     0.062700000000     0          
T        Si     0.082200000000     0.998833333333     0.125000000000     0          
T        Si     0.082600000000     0.666666666667     0.000000000000     0          
T        Si     0.303700000000     0.860566666667     0.312700000000     0          
T        Si     0.083366666667     0.748866666667     0.375000000000     0          
T        Si     0.082600000000     0.749266666667     0.250000000000     0          
T        Si     0.109800000000     0.970366666667     0.062700000000     0          
T        Si     0.001166666667     0.750033333333     0.125000000000     0          
T        Si     0.000000000000     0.749266666667     0.000000000000     0          
T        Si     0.139433333333     0.776466666667     0.312700000000     0          
T        Si     0.251133333333     0.667833333333     0.375000000000     0          
T        Si     0.250733333333     0.666666666667     0.250000000000     0          
T        Si     0.029633333333     0.806100000000     0.062700000000     0          
T        Si     0.249966666667     0.917800000000     0.125000000000     0          
T        Si     0.250733333333     0.917400000000     0.000000000000     0          
T        Si     0.223533333333     0.696300000000     0.312700000000     0          
T        Si     0.332166666667     0.916633333333     0.375000000000     0          
T        Si     0.000000000000     0.917400000000     0.250000000000     0          
T        Si     0.109800000000     0.806100000000     0.187300000000     0          
T        Si     0.001166666667     0.917800000000     0.125000000000     0          
T        Si     0.303700000000     0.776466666667     0.437300000000     0          
T        Si     0.083366666667     0.667833333333     0.375000000000     0          
T        Si     0.193900000000     0.970366666667     0.187300000000     0          
T        Si     0.082200000000     0.750033333333     0.125000000000     0          
T        Si     0.223533333333     0.860566666667     0.437300000000     0          
T        Si     0.332166666667     0.748866666667     0.375000000000     0          
T        Si     0.029633333333     0.890200000000     0.187300000000     0          
T        Si     0.249966666667     0.998833333333     0.125000000000     0          
T        Si     0.139433333333     0.696300000000     0.437300000000     0          
T        Si     0.251133333333     0.916633333333     0.375000000000     0          
T        Si     0.139433333333     0.776466666667     0.437300000000     0          
T        Si     0.250733333333     0.666666666667     0.000000000000     0          
T        Si     0.029633333333     0.806100000000     0.187300000000     0          
T        Si     0.250733333333     0.917400000000     0.250000000000     0          
T        Si     0.223533333333     0.696300000000     0.437300000000     0          
T        Si     0.000000000000     0.917400000000     0.000000000000     0          
T        Si     0.193900000000     0.890200000000     0.187300000000     0          
T        Si     0.082600000000     0.666666666667     0.250000000000     0          
T        Si     0.303700000000     0.860566666667     0.437300000000     0          
T        Si     0.082600000000     0.749266666667     0.000000000000     0          
T        Si     0.109800000000     0.970366666667     0.187300000000     0          
T        Si     0.000000000000     0.749266666667     0.250000000000     0          
T        Si     0.223533333333     0.860566666667     0.312700000000     0          
T        Si     0.029633333333     0.890200000000     0.062700000000     0          
T        Si     0.139433333333     0.696300000000     0.312700000000     0          
T        Si     0.109800000000     0.806100000000     0.062700000000     0          
T        Si     0.303700000000     0.776466666667     0.312700000000     0          
T        Si     0.193900000000     0.970366666667     0.062700000000     0          
T        Si     0.193900000000     0.890200000000     0.562700000000     0          
T        Si     0.082200000000     0.998833333333     0.625000000000     0          
T        Si     0.082600000000     0.666666666667     0.500000000000     0          
T        Si     0.303700000000     0.860566666667     0.812700000000     0          
T        Si     0.083366666667     0.748866666667     0.875000000000     0          
T        Si     0.082600000000     0.749266666667     0.750000000000     0          
T        Si     0.109800000000     0.970366666667     0.562700000000     0          
T        Si     0.001166666667     0.750033333333     0.625000000000     0          
T        Si     0.000000000000     0.749266666667     0.500000000000     0          
T        Si     0.139433333333     0.776466666667     0.812700000000     0          
T        Si     0.251133333333     0.667833333333     0.875000000000     0          
T        Si     0.250733333333     0.666666666667     0.750000000000     0          
T        Si     0.029633333333     0.806100000000     0.562700000000     0          
T        Si     0.249966666667     0.917800000000     0.625000000000     0          
T        Si     0.250733333333     0.917400000000     0.500000000000     0          
T        Si     0.223533333333     0.696300000000     0.812700000000     0          
T        Si     0.332166666667     0.916633333333     0.875000000000     0          
T        Si     0.000000000000     0.917400000000     0.750000000000     0          
T        Si     0.109800000000     0.806100000000     0.687300000000     0          
T        Si     0.001166666667     0.917800000000     0.625000000000     0          
T        Si     0.303700000000     0.776466666667     0.937300000000     0          
T        Si     0.083366666667     0.667833333333     0.875000000000     0          
T        Si     0.193900000000     0.970366666667     0.687300000000     0          
T        Si     0.082200000000     0.750033333333     0.625000000000     0          
T        Si     0.223533333333     0.860566666667     0.937300000000     0          
T        Si     0.332166666667     0.748866666667     0.875000000000     0          
T        Si     0.029633333333     0.890200000000     0.687300000000     0          
T        Si     0.249966666667     0.998833333333     0.625000000000     0          
T        Si     0.139433333333     0.696300000000     0.937300000000     0          
T        Si     0.251133333333     0.916633333333     0.875000000000     0          
T        Si     0.139433333333     0.776466666667     0.937300000000     0          
T        Si     0.250733333333     0.666666666667     0.500000000000     0          
T        Si     0.029633333333     0.806100000000     0.687300000000     0          
T        Si     0.250733333333     0.917400000000     0.750000000000     0          
T        Si     0.223533333333     0.696300000000     0.937300000000     0          
T        Si     0.000000000000     0.917400000000     0.500000000000     0          
T        Si     0.193900000000     0.890200000000     0.687300000000     0          
T        Si     0.082600000000     0.666666666667     0.750000000000     0          
T        Si     0.303700000000     0.860566666667     0.937300000000     0          
T        Si     0.082600000000     0.749266666667     0.500000000000     0          
T        Si     0.109800000000     0.970366666667     0.687300000000     0          
T        Si     0.000000000000     0.749266666667     0.750000000000     0          
T        Si     0.223533333333     0.860566666667     0.812700000000     0          
T        Si     0.029633333333     0.890200000000     0.562700000000     0          
T        Si     0.139433333333     0.696300000000     0.812700000000     0          
T        Si     0.109800000000     0.806100000000     0.562700000000     0          
T        Si     0.303700000000     0.776466666667     0.812700000000     0          
T        Si     0.193900000000     0.970366666667     0.562700000000     0          
T        Si     0.527233333333     0.223533333333     0.062700000000     0          
T        Si     0.415533333333     0.332166666667     0.125000000000     0          
T        Si     0.415933333333     0.000000000000     0.000000000000     0          
T        Si     0.637033333333     0.193900000000     0.312700000000     0          
T        Si     0.416700000000     0.082200000000     0.375000000000     0          
T        Si     0.415933333333     0.082600000000     0.250000000000     0          
T        Si     0.443133333333     0.303700000000     0.062700000000     0          
T        Si     0.334500000000     0.083366666667     0.125000000000     0          
T        Si     0.333333333333     0.082600000000     0.000000000000     0          
T        Si     0.472766666667     0.109800000000     0.312700000000     0          
T        Si     0.584466666667     0.001166666667     0.375000000000     0          
T        Si     0.584066666667     0.000000000000     0.250000000000     0          
T        Si     0.362966666667     0.139433333333     0.062700000000     0          
T        Si     0.583300000000     0.251133333333     0.125000000000     0          
T        Si     0.584066666667     0.250733333333     0.000000000000     0          
T        Si     0.556866666667     0.029633333333     0.312700000000     0          
T        Si     0.665500000000     0.249966666667     0.375000000000     0          
T        Si     0.333333333333     0.250733333333     0.250000000000     0          
T        Si     0.443133333333     0.139433333333     0.187300000000     0          
T        Si     0.334500000000     0.251133333333     0.125000000000     0          
T        Si     0.637033333333     0.109800000000     0.437300000000     0          
T        Si     0.416700000000     0.001166666667     0.375000000000     0          
T        Si     0.527233333333     0.303700000000     0.187300000000     0          
T        Si     0.415533333333     0.083366666667     0.125000000000     0          
T        Si     0.556866666667     0.193900000000     0.437300000000     0          
T        Si     0.665500000000     0.082200000000     0.375000000000     0          
T        Si     0.362966666667     0.223533333333     0.187300000000     0          
T        Si     0.583300000000     0.332166666667     0.125000000000     0          
T        Si     0.472766666667     0.029633333333     0.437300000000     0          
T        Si     0.584466666667     0.249966666667     0.375000000000     0          
T        Si     0.472766666667     0.109800000000     0.437300000000     0          
T        Si     0.584066666667     0.000000000000     0.000000000000     0          
T        Si     0.362966666667     0.139433333333     0.187300000000     0          
T        Si     0.584066666667     0.250733333333     0.250000000000     0          
T        Si     0.556866666667     0.029633333333     0.437300000000     0          
T        Si     0.333333333333     0.250733333333     0.000000000000     0          
T        Si     0.527233333333     0.223533333333     0.187300000000     0          
T        Si     0.415933333333     0.000000000000     0.250000000000     0          
T        Si     0.637033333333     0.193900000000     0.437300000000     0          
T        Si     0.415933333333     0.082600000000     0.000000000000     0          
T        Si     0.443133333333     0.303700000000     0.187300000000     0          
T        Si     0.333333333333     0.082600000000     0.250000000000     0          
T        Si     0.556866666667     0.193900000000     0.312700000000     0          
T        Si     0.362966666667     0.223533333333     0.062700000000     0          
T        Si     0.472766666667     0.029633333333     0.312700000000     0          
T        Si     0.443133333333     0.139433333333     0.062700000000     0          
T        Si     0.637033333333     0.109800000000     0.312700000000     0          
T        Si     0.527233333333     0.303700000000     0.062700000000     0          
T        Si     0.527233333333     0.223533333333     0.562700000000     0          
T        Si     0.415533333333     0.332166666667     0.625000000000     0          
T        Si     0.415933333333     0.000000000000     0.500000000000     0          
T        Si     0.637033333333     0.193900000000     0.812700000000     0          
T        Si     0.416700000000     0.082200000000     0.875000000000     0          
T        Si     0.415933333333     0.082600000000     0.750000000000     0          
T        Si     0.443133333333     0.303700000000     0.562700000000     0          
T        Si     0.334500000000     0.083366666667     0.625000000000     0          
T        Si     0.333333333333     0.082600000000     0.500000000000     0          
T        Si     0.472766666667     0.109800000000     0.812700000000     0          
T        Si     0.584466666667     0.001166666667     0.875000000000     0          
T        Si     0.584066666667     0.000000000000     0.750000000000     0          
T        Si     0.362966666667     0.139433333333     0.562700000000     0          
T        Si     0.583300000000     0.251133333333     0.625000000000     0          
T        Si     0.584066666667     0.250733333333     0.500000000000     0          
T        Si     0.556866666667     0.029633333333     0.812700000000     0          
T        Si     0.665500000000     0.249966666667     0.875000000000     0          
T        Si     0.333333333333     0.250733333333     0.750000000000     0          
T        Si     0.443133333333     0.139433333333     0.687300000000     0          
T        Si     0.334500000000     0.251133333333     0.625000000000     0          
T        Si     0.637033333333     0.109800000000     0.937300000000     0          
T        Si     0.416700000000     0.001166666667     0.875000000000     0          
T        Si     0.527233333333     0.303700000000     0.687300000000     0          
T        Si     0.415533333333     0.083366666667     0.625000000000     0          
T        Si     0.556866666667     0.193900000000     0.937300000000     0          
T        Si     0.665500000000     0.082200000000     0.875000000000     0          
T        Si     0.362966666667     0.223533333333     0.687300000000     0          
T        Si     0.583300000000     0.332166666667     0.625000000000     0          
T        Si     0.472766666667     0.029633333333     0.937300000000     0          
T        Si     0.584466666667     0.249966666667     0.875000000000     0          
T        Si     0.472766666667     0.109800000000     0.937300000000     0          
T        Si     0.584066666667     0.000000000000     0.500000000000     0          
T        Si     0.362966666667     0.139433333333     0.687300000000     0          
T        Si     0.584066666667     0.250733333333     0.750000000000     0          
T        Si     0.556866666667     0.029633333333     0.937300000000     0          
T        Si     0.333333333333     0.250733333333     0.500000000000     0          
T        Si     0.527233333333     0.223533333333     0.687300000000     0          
T        Si     0.415933333333     0.000000000000     0.750000000000     0          
T        Si     0.637033333333     0.193900000000     0.937300000000     0          
T        Si     0.415933333333     0.082600000000     0.500000000000     0          
T        Si     0.443133333333     0.303700000000     0.687300000000     0          
T        Si     0.333333333333     0.082600000000     0.750000000000     0          
T        Si     0.556866666667     0.193900000000     0.812700000000     0          
T        Si     0.362966666667     0.223533333333     0.562700000000     0          
T        Si     0.472766666667     0.029633333333     0.812700000000     0          
T        Si     0.443133333333     0.139433333333     0.562700000000     0          
T        Si     0.637033333333     0.109800000000     0.812700000000     0          
T        Si     0.527233333333     0.303700000000     0.562700000000     0          
T        Si     0.527233333333     0.556866666667     0.062700000000     0          
T        Si     0.415533333333     0.665500000000     0.125000000000     0          
T        Si     0.415933333333     0.333333333333     0.000000000000     0          
T        Si     0.637033333333     0.527233333333     0.312700000000     0          
T        Si     0.416700000000     0.415533333333     0.375000000000     0          
T        Si     0.415933333333     0.415933333333     0.250000000000     0          
T        Si     0.443133333333     0.637033333333     0.062700000000     0          
T        Si     0.334500000000     0.416700000000     0.125000000000     0          
T        Si     0.333333333333     0.415933333333     0.000000000000     0          
T        Si     0.472766666667     0.443133333333     0.312700000000     0          
T        Si     0.584466666667     0.334500000000     0.375000000000     0          
T        Si     0.584066666667     0.333333333333     0.250000000000     0          
T        Si     0.362966666667     0.472766666667     0.062700000000     0          
T        Si     0.583300000000     0.584466666667     0.125000000000     0          
T        Si     0.584066666667     0.584066666667     0.000000000000     0          
T        Si     0.556866666667     0.362966666667     0.312700000000     0          
T        Si     0.665500000000     0.583300000000     0.375000000000     0          
T        Si     0.333333333333     0.584066666667     0.250000000000     0          
T        Si     0.443133333333     0.472766666667     0.187300000000     0          
T        Si     0.334500000000     0.584466666667     0.125000000000     0          
T        Si     0.637033333333     0.443133333333     0.437300000000     0          
T        Si     0.416700000000     0.334500000000     0.375000000000     0          
T        Si     0.527233333333     0.637033333333     0.187300000000     0          
T        Si     0.415533333333     0.416700000000     0.125000000000     0          
T        Si     0.556866666667     0.527233333333     0.437300000000     0          
T        Si     0.665500000000     0.415533333333     0.375000000000     0          
T        Si     0.362966666667     0.556866666667     0.187300000000     0          
T        Si     0.583300000000     0.665500000000     0.125000000000     0          
T        Si     0.472766666667     0.362966666667     0.437300000000     0          
T        Si     0.584466666667     0.583300000000     0.375000000000     0          
T        Si     0.472766666667     0.443133333333     0.437300000000     0          
T        Si     0.584066666667     0.333333333333     0.000000000000     0          
T        Si     0.362966666667     0.472766666667     0.187300000000     0          
T        Si     0.584066666667     0.584066666667     0.250000000000     0          
T        Si     0.556866666667     0.362966666667     0.437300000000     0          
T        Si     0.333333333333     0.584066666667     0.000000000000     0          
T        Si     0.527233333333     0.556866666667     0.187300000000     0          
T        Si     0.415933333333     0.333333333333     0.250000000000     0          
T        Si     0.637033333333     0.527233333333     0.437300000000     0          
T        Si     0.415933333333     0.415933333333     0.000000000000     0          
T        Si     0.443133333333     0.637033333333     0.187300000000     0          
T        Si     0.333333333333     0.415933333333     0.250000000000     0          
T        Si     0.556866666667     0.527233333333     0.312700000000     0          
T        Si     0.362966666667     0.556866666667     0.062700000000     0          
T        Si     0.472766666667     0.362966666667     0.312700000000     0          
T        Si     0.443133333333     0.472766666667     0.062700000000     0          
T        Si     0.637033333333     0.443133333333     0.312700000000     0          
T        Si     0.527233333333     0.637033333333     0.062700000000     0          
T        Si     0.527233333333     0.556866666667     0.562700000000     0          
T        Si     0.415533333333     0.665500000000     0.625000000000     0          
T        Si     0.415933333333     0.333333333333     0.500000000000     0          
T        Si     0.637033333333     0.527233333333     0.812700000000     0          
T        Si     0.416700000000     0.415533333333     0.875000000000     0          
T        Si     0.415933333333     0.415933333333     0.750000000000     0          
T        Si     0.443133333333     0.637033333333     0.562700000000     0          
T        Si     0.334500000000     0.416700000000     0.625000000000     0          
T        Si     0.333333333333     0.415933333333     0.500000000000     0          
T        Si     0.472766666667     0.443133333333     0.812700000000     0          
T        Si     0.584466666667     0.334500000000     0.875000000000     0          
T        Si     0.584066666667     0.333333333333     0.750000000000     0          
T        Si     0.362966666667     0.472766666667     0.562700000000     0          
T        Si     0.583300000000     0.584466666667     0.625000000000     0          
T        Si     0.584066666667     0.584066666667     0.500000000000     0          
T        Si     0.556866666667     0.362966666667     0.812700000000     0          
T        Si     0.665500000000     0.583300000000     0.875000000000     0          
T        Si     0.333333333333     0.584066666667     0.750000000000     0          
T        Si     0.443133333333     0.472766666667     0.687300000000     0          
T        Si     0.334500000000     0.584466666667     0.625000000000     0          
T        Si     0.637033333333     0.443133333333     0.937300000000     0          
T        Si     0.416700000000     0.334500000000     0.875000000000     0          
T        Si     0.527233333333     0.637033333333     0.687300000000     0          
T        Si     0.415533333333     0.416700000000     0.625000000000     0          
T        Si     0.556866666667     0.527233333333     0.937300000000     0          
T        Si     0.665500000000     0.415533333333     0.875000000000     0          
T        Si     0.362966666667     0.556866666667     0.687300000000     0          
T        Si     0.583300000000     0.665500000000     0.625000000000     0          
T        Si     0.472766666667     0.362966666667     0.937300000000     0          
T        Si     0.584466666667     0.583300000000     0.875000000000     0          
T        Si     0.472766666667     0.443133333333     0.937300000000     0          
T        Si     0.584066666667     0.333333333333     0.500000000000     0          
T        Si     0.362966666667     0.472766666667     0.687300000000     0          
T        Si     0.584066666667     0.584066666667     0.750000000000     0          
T        Si     0.556866666667     0.362966666667     0.937300000000     0          
T        Si     0.333333333333     0.584066666667     0.500000000000     0          
T        Si     0.527233333333     0.556866666667     0.687300000000     0          
T        Si     0.415933333333     0.333333333333     0.750000000000     0          
T        Si     0.637033333333     0.527233333333     0.937300000000     0          
T        Si     0.415933333333     0.415933333333     0.500000000000     0          
T        Si     0.443133333333     0.637033333333     0.687300000000     0          
T        Si     0.333333333333     0.415933333333     0.750000000000     0          
T        Si     0.556866666667     0.527233333333     0.812700000000     0          
T        Si     0.362966666667     0.556866666667     0.562700000000     0          
T        Si     0.472766666667     0.362966666667     0.812700000000     0          
T        Si     0.443133333333     0.472766666667     0.562700000000     0          
T        Si     0.637033333333     0.443133333333     0.812700000000     0          
T        Si     0.527233333333     0.637033333333     0.562700000000     0          
T        Si     0.527233333333     0.890200000000     0.062700000000     0          
T        Si     0.415533333333     0.998833333333     0.125000000000     0          
T        Si     0.415933333333     0.666666666667     0.000000000000     0          
T        Si     0.637033333333     0.860566666667     0.312700000000     0          
T        Si     0.416700000000     0.748866666667     0.375000000000     0          
T        Si     0.415933333333     0.749266666667     0.250000000000     0          
T        Si     0.443133333333     0.970366666667     0.062700000000     0          
T        Si     0.334500000000     0.750033333333     0.125000000000     0          
T        Si     0.333333333333     0.749266666667     0.000000000000     0          
T        Si     0.472766666667     0.776466666667     0.312700000000     0          
T        Si     0.584466666667     0.667833333333     0.375000000000     0          
T        Si     0.584066666667     0.666666666667     0.250000000000     0          
T        Si     0.362966666667     0.806100000000     0.062700000000     0          
T        Si     0.583300000000     0.917800000000     0.125000000000     0          
T        Si     0.584066666667     0.917400000000     0.000000000000     0          
T        Si     0.556866666667     0.696300000000     0.312700000000     0          
T        Si     0.665500000000     0.916633333333     0.375000000000     0          
T        Si     0.333333333333     0.917400000000     0.250000000000     0          
T        Si     0.443133333333     0.806100000000     0.187300000000     0          
T        Si     0.334500000000     0.917800000000     0.125000000000     0          
T        Si     0.637033333333     0.776466666667     0.437300000000     0          
T        Si     0.416700000000     0.667833333333     0.375000000000     0          
T        Si     0.527233333333     0.970366666667     0.187300000000     0          
T        Si     0.415533333333     0.750033333333     0.125000000000     0          
T        Si     0.556866666667     0.860566666667     0.437300000000     0          
T        Si     0.665500000000     0.748866666667     0.375000000000     0          
T        Si     0.362966666667     0.890200000000     0.187300000000     0          
T        Si     0.583300000000     0.998833333333     0.125000000000     0          
T        Si     0.472766666667     0.696300000000     0.437300000000     0          
T        Si     0.584466666667     0.916633333333     0.375000000000     0          
T        Si     0.472766666667     0.776466666667     0.437300000000     0          
T        Si     0.584066666667     0.666666666667     0.000000000000     0          
T        Si     0.362966666667     0.806100000000     0.187300000000     0          
T        Si     0.584066666667     0.917400000000     0.250000000000     0          
T        Si     0.556866666667     0.696300000000     0.437300000000     0          
T        Si     0.333333333333     0.917400000000     0.000000000000     0          
T        Si     0.527233333333     0.890200000000     0.187300000000     0          
T        Si     0.415933333333     0.666666666667     0.250000000000     0          
T        Si     0.637033333333     0.860566666667     0.437300000000     0          
T        Si     0.415933333333     0.749266666667     0.000000000000     0          
T        Si     0.443133333333     0.970366666667     0.187300000000     0          
T        Si     0.333333333333     0.749266666667     0.250000000000     0          
T        Si     0.556866666667     0.860566666667     0.312700000000     0          
T        Si     0.362966666667     0.890200000000     0.062700000000     0          
T        Si     0.472766666667     0.696300000000     0.312700000000     0          
T        Si     0.443133333333     0.806100000000     0.062700000000     0          
T        Si     0.637033333333     0.776466666667     0.312700000000     0          
T        Si     0.527233333333     0.970366666667     0.062700000000     0          
T        Si     0.527233333333     0.890200000000     0.562700000000     0          
T        Si     0.415533333333     0.998833333333     0.625000000000     0          
T        Si     0.415933333333     0.666666666667     0.500000000000     0          
T        Si     0.637033333333     0.860566666667     0.812700000000     0          
T        Si     0.416700000000     0.748866666667     0.875000000000     0          
T        Si     0.415933333333     0.749266666667     0.750000000000     0          
T        Si     0.443133333333     0.970366666667     0.562700000000     0          
T        Si     0.334500000000     0.750033333333     0.625000000000     0          
T        Si     0.333333333333     0.749266666667     0.500000000000     0          
T        Si     0.472766666667     0.776466666667     0.812700000000     0          
T        Si     0.584466666667     0.667833333333     0.875000000000     0          
T        Si     0.584066666667     0.666666666667     0.750000000000     0          
T        Si     0.362966666667     0.806100000000     0.562700000000     0          
T        Si     0.583300000000     0.917800000000     0.625000000000     0          
T        Si     0.584066666667     0.917400000000     0.500000000000     0          
T        Si     0.556866666667     0.696300000000     0.812700000000     0          
T        Si     0.665500000000     0.916633333333     0.875000000000     0          
T        Si     0.333333333333     0.917400000000     0.750000000000     0          
T        Si     0.443133333333     0.806100000000     0.687300000000     0          
T        Si     0.334500000000     0.917800000000     0.625000000000     0          
T        Si     0.637033333333     0.776466666667     0.937300000000     0          
T        Si     0.416700000000     0.667833333333     0.875000000000     0          
T        Si     0.527233333333     0.970366666667     0.687300000000     0          
T        Si     0.415533333333     0.750033333333     0.625000000000     0          
T        Si     0.556866666667     0.860566666667     0.937300000000     0          
T        Si     0.665500000000     0.748866666667     0.875000000000     0          
T        Si     0.362966666667     0.890200000000     0.687300000000     0          
T        Si     0.583300000000     0.998833333333     0.625000000000     0          
T        Si     0.472766666667     0.696300000000     0.937300000000     0          
T        Si     0.584466666667     0.916633333333     0.875000000000     0          
T        Si     0.472766666667     0.776466666667     0.937300000000     0          
T        Si     0.584066666667     0.666666666667     0.500000000000     0          
T        Si     0.362966666667     0.806100000000     0.687300000000     0          
T        Si     0.584066666667     0.917400000000     0.750000000000     0          
T        Si     0.556866666667     0.696300000000     0.937300000000     0          
T        Si     0.333333333333     0.917400000000     0.500000000000     0          
T        Si     0.527233333333     0.890200000000     0.687300000000     0          
T        Si     0.415933333333     0.666666666667     0.750000000000     0          
T        Si     0.637033333333     0.860566666667     0.937300000000     0          
T        Si     0.415933333333     0.749266666667     0.500000000000     0          
T        Si     0.443133333333     0.970366666667     0.687300000000     0          
T        Si     0.333333333333     0.749266666667     0.750000000000     0          
T        Si     0.556866666667     0.860566666667     0.812700000000     0          
T        Si     0.362966666667     0.890200000000     0.562700000000     0          
T        Si     0.472766666667     0.696300000000     0.812700000000     0          
T        Si     0.443133333333     0.806100000000     0.562700000000     0          
T        Si     0.637033333333     0.776466666667     0.812700000000     0          
T        Si     0.527233333333     0.970366666667     0.562700000000     0          
T        Si     0.860566666667     0.223533333333     0.062700000000     0          
T        Si     0.748866666667     0.332166666667     0.125000000000     0          
T        Si     0.749266666667     0.000000000000     0.000000000000     0          
T        Si     0.970366666667     0.193900000000     0.312700000000     0          
T        Si     0.750033333333     0.082200000000     0.375000000000     0          
T        Si     0.749266666667     0.082600000000     0.250000000000     0          
T        Si     0.776466666667     0.303700000000     0.062700000000     0          
T        Si     0.667833333333     0.083366666667     0.125000000000     0          
T        Si     0.666666666667     0.082600000000     0.000000000000     0          
T        Si     0.806100000000     0.109800000000     0.312700000000     0          
T        Si     0.917800000000     0.001166666667     0.375000000000     0          
T        Si     0.917400000000     0.000000000000     0.250000000000     0          
T        Si     0.696300000000     0.139433333333     0.062700000000     0          
T        Si     0.916633333333     0.251133333333     0.125000000000     0          
T        Si     0.917400000000     0.250733333333     0.000000000000     0          
T        Si     0.890200000000     0.029633333333     0.312700000000     0          
T        Si     0.998833333333     0.249966666667     0.375000000000     0          
T        Si     0.666666666667     0.250733333333     0.250000000000     0          
T        Si     0.776466666667     0.139433333333     0.187300000000     0          
T        Si     0.667833333333     0.251133333333     0.125000000000     0          
T        Si     0.970366666667     0.109800000000     0.437300000000     0          
T        Si     0.750033333333     0.001166666667     0.375000000000     0          
T        Si     0.860566666667     0.303700000000     0.187300000000     0          
T        Si     0.748866666667     0.083366666667     0.125000000000     0          
T        Si     0.890200000000     0.193900000000     0.437300000000     0          
T        Si     0.998833333333     0.082200000000     0.375000000000     0          
T        Si     0.696300000000     0.223533333333     0.187300000000     0          
T        Si     0.916633333333     0.332166666667     0.125000000000     0          
T        Si     0.806100000000     0.029633333333     0.437300000000     0          
T        Si     0.917800000000     0.249966666667     0.375000000000     0          
T        Si     0.806100000000     0.109800000000     0.437300000000     0          
T        Si     0.917400000000     0.000000000000     0.000000000000     0          
T        Si     0.696300000000     0.139433333333     0.187300000000     0          
T        Si     0.917400000000     0.250733333333     0.250000000000     0          
T        Si     0.890200000000     0.029633333333     0.437300000000     0          
T        Si     0.666666666667     0.250733333333     0.000000000000     0          
T        Si     0.860566666667     0.223533333333     0.187300000000     0          
T        Si     0.749266666667     0.000000000000     0.250000000000     0          
T        Si     0.970366666667     0.193900000000     0.437300000000     0          
T        Si     0.749266666667     0.082600000000     0.000000000000     0          
T        Si     0.776466666667     0.303700000000     0.187300000000     0          
T        Si     0.666666666667     0.082600000000     0.250000000000     0          
T        Si     0.890200000000     0.193900000000     0.312700000000     0          
T        Si     0.696300000000     0.223533333333     0.062700000000     0          
T        Si     0.806100000000     0.029633333333     0.312700000000     0          
T        Si     0.776466666667     0.139433333333     0.062700000000     0          
T        Si     0.970366666667     0.109800000000     0.312700000000     0          
T        Si     0.860566666667     0.303700000000     0.062700000000     0          
T        Si     0.860566666667     0.223533333333     0.562700000000     0          
T        Si     0.748866666667     0.332166666667     0.625000000000     0          
T        Si     0.749266666667     0.000000000000     0.500000000000     0          
T        Si     0.970366666667     0.193900000000     0.812700000000     0          
T        Si     0.750033333333     0.082200000000     0.875000000000     0          
T        Si     0.749266666667     0.082600000000     0.750000000000     0          
T        Si     0.776466666667     0.303700000000     0.562700000000     0          
T        Si     0.667833333333     0.083366666667     0.625000000000     0          
T        Si     0.666666666667     0.082600000000     0.500000000000     0          
T        Si     0.806100000000     0.109800000000     0.812700000000     0          
T        Si     0.917800000000     0.001166666667     0.875000000000     0          
T        Si     0.917400000000     0.000000000000     0.750000000000     0          
T        Si     0.696300000000     0.139433333333     0.562700000000     0          
T        Si     0.916633333333     0.251133333333     0.625000000000     0          
T        Si     0.917400000000     0.250733333333     0.500000000000     0          
T        Si     0.890200000000     0.029633333333     0.812700000000     0          
T        Si     0.998833333333     0.249966666667     0.875000000000     0          
T        Si     0.666666666667     0.250733333333     0.750000000000     0          
T        Si     0.776466666667     0.139433333333     0.687300000000     0          
T        Si     0.667833333333     0.251133333333     0.625000000000     0          
T        Si     0.970366666667     0.109800000000     0.937300000000     0          
T        Si     0.750033333333     0.001166666667     0.875000000000     0          
T        Si     0.860566666667     0.303700000000     0.687300000000     0          
T        Si     0.748866666667     0.083366666667     0.625000000000     0          
T        Si     0.890200000000     0.193900000000     0.937300000000     0          
T        Si     0.998833333333     0.082200000000     0.875000000000     0          
T        Si     0.696300000000     0.223533333333     0.687300000000     0          
T        Si     0.916633333333     0.332166666667     0.625000000000     0          
T        Si     0.806100000000     0.029633333333     0.937300000000     0          
T        Si     0.917800000000     0.249966666667     0.875000000000     0          
T        Si     0.806100000000     0.109800000000     0.937300000000     0          
T        Si     0.917400000000     0.000000000000     0.500000000000     0          
T        Si     0.696300000000     0.139433333333     0.687300000000     0          
T        Si     0.917400000000     0.250733333333     0.750000000000     0          
T        Si     0.890200000000     0.029633333333     0.937300000000     0          
T        Si     0.666666666667     0.250733333333     0.500000000000     0          
T        Si     0.860566666667     0.223533333333     0.687300000000     0          
T        Si     0.749266666667     0.000000000000     0.750000000000     0          
T        Si     0.970366666667     0.193900000000     0.937300000000     0          
T        Si     0.749266666667     0.082600000000     0.500000000000     0          
T        Si     0.776466666667     0.303700000000     0.687300000000     0          
T        Si     0.666666666667     0.082600000000     0.750000000000     0          
T        Si     0.890200000000     0.193900000000     0.812700000000     0          
T        Si     0.696300000000     0.223533333333     0.562700000000     0          
T        Si     0.806100000000     0.029633333333     0.812700000000     0          
T        Si     0.776466666667     0.139433333333     0.562700000000     0          
T        Si     0.970366666667     0.109800000000     0.812700000000     0          
T        Si     0.860566666667     0.303700000000     0.562700000000     0          
T        Si     0.860566666667     0.556866666667     0.062700000000     0          
T        Si     0.748866666667     0.665500000000     0.125000000000     0          
T        Si     0.749266666667     0.333333333333     0.000000000000     0          
T        Si     0.970366666667     0.527233333333     0.312700000000     0          
T        Si     0.750033333333     0.415533333333     0.375000000000     0          
T        Si     0.749266666667     0.415933333333     0.250000000000     0          
T        Si     0.776466666667     0.637033333333     0.062700000000     0          
T        Si     0.667833333333     0.416700000000     0.125000000000     0          
T        Si     0.666666666667     0.415933333333     0.000000000000     0          
T        Si     0.806100000000     0.443133333333     0.312700000000     0          
T        Si     0.917800000000     0.334500000000     0.375000000000     0          
T        Si     0.917400000000     0.333333333333     0.250000000000     0          
T        Si     0.696300000000     0.472766666667     0.062700000000     0          
T        Si     0.916633333333     0.584466666667     0.125000000000     0          
T        Si     0.917400000000     0.584066666667     0.000000000000     0          
T        Si     0.890200000000     0.362966666667     0.312700000000     0          
T        Si     0.998833333333     0.583300000000     0.375000000000     0          
T        Si     0.666666666667     0.584066666667     0.250000000000     0          
T        Si     0.776466666667     0.472766666667     0.187300000000     0          
T        Si     0.667833333333     0.584466666667     0.125000000000     0          
T        Si     0.970366666667     0.443133333333     0.437300000000     0          
T        Si     0.750033333333     0.334500000000     0.375000000000     0          
T        Si     0.860566666667     0.637033333333     0.187300000000     0          
T        Si     0.748866666667     0.416700000000     0.125000000000     0          
T        Si     0.890200000000     0.527233333333     0.437300000000     0          
T        Si     0.998833333333     0.415533333333     0.375000000000     0          
T        Si     0.696300000000     0.556866666667     0.187300000000     0          
T        Si     0.916633333333     0.665500000000     0.125000000000     0          
T        Si     0.806100000000     0.362966666667     0.437300000000     0          
T        Si     0.917800000000     0.583300000000     0.375000000000     0          
T        Si     0.806100000000     0.443133333333     0.437300000000     0          
T        Si     0.917400000000     0.333333333333     0.000000000000     0          
T        Si     0.696300000000     0.472766666667     0.187300000000     0          
T        Si     0.917400000000     0.584066666667     0.250000000000     0          
T        Si     0.890200000000     0.362966666667     0.437300000000     0          
T        Si     0.666666666667     0.584066666667     0.000000000000     0          
T        Si     0.860566666667     0.556866666667     0.187300000000     0          
T        Si     0.749266666667     0.333333333333     0.250000000000     0          
T        Si     0.970366666667     0.527233333333     0.437300000000     0          
T        Si     0.749266666667     0.415933333333     0.000000000000     0          
T        Si     0.776466666667     0.637033333333     0.187300000000     0          
T        Si     0.666666666667     0.415933333333     0.250000000000     0          
T        Si     0.890200000000     0.527233333333     0.312700000000     0          
T        Si     0.696300000000     0.556866666667     0.062700000000     0          
T        Si     0.806100000000     0.362966666667     0.312700000000     0          
T        Si     0.776466666667     0.472766666667     0.062700000000     0          
T        Si     0.970366666667     0.443133333333     0.312700000000     0          
T        Si     0.860566666667     0.637033333333     0.062700000000     0          
T        Si     0.860566666667     0.556866666667     0.562700000000     0          
T        Si     0.748866666667     0.665500000000     0.625000000000     0          
T        Si     0.749266666667     0.333333333333     0.500000000000     0          
T        Si     0.970366666667     0.527233333333     0.812700000000     0          
T        Si     0.750033333333     0.415533333333     0.875000000000     0          
T        Si     0.749266666667     0.415933333333     0.750000000000     0          
T        Si     0.776466666667     0.637033333333     0.562700000000     0          
T        Si     0.667833333333     0.416700000000     0.625000000000     0          
T        Si     0.666666666667     0.415933333333     0.500000000000     0          
T        Si     0.806100000000     0.443133333333     0.812700000000     0          
T        Si     0.917800000000     0.334500000000     0.875000000000     0          
T        Si     0.917400000000     0.333333333333     0.750000000000     0          
T        Si     0.696300000000     0.472766666667     0.562700000000     0          
T        Si     0.916633333333     0.584466666667     0.625000000000     0          
T        Si     0.917400000000     0.584066666667     0.500000000000     0          
T        Si     0.890200000000     0.362966666667     0.812700000000     0          
T        Si     0.998833333333     0.583300000000     0.875000000000     0          
T        Si     0.666666666667     0.584066666667     0.750000000000     0          
T        Si     0.776466666667     0.472766666667     0.687300000000     0          
T        Si     0.667833333333     0.584466666667     0.625000000000     0          
T        Si     0.970366666667     0.443133333333     0.937300000000     0          
T        Si     0.750033333333     0.334500000000     0.875000000000     0          
T        Si     0.860566666667     0.637033333333     0.687300000000     0          
T        Si     0.748866666667     0.416700000000     0.625000000000     0          
T        Si     0.890200000000     0.527233333333     0.937300000000     0          
T        Si     0.998833333333     0.415533333333     0.875000000000     0          
T        Si     0.696300000000     0.556866666667     0.687300000000     0          
T        Si     0.916633333333     0.665500000000     0.625000000000     0          
T        Si     0.806100000000     0.362966666667     0.937300000000     0          
T        Si     0.917800000000     0.583300000000     0.875000000000     0          
T        Si     0.806100000000     0.443133333333     0.937300000000     0          
T        Si     0.917400000000     0.333333333333     0.500000000000     0          
T        Si     0.696300000000     0.472766666667     0.687300000000     0          
T        Si     0.917400000000     0.584066666667     0.750000000000     0          
T        Si     0.890200000000     0.362966666667     0.937300000000     0          
T        Si     0.666666666667     0.584066666667     0.500000000000     0          
T        Si     0.860566666667     0.556866666667     0.687300000000     0          
T        Si     0.749266666667     0.333333333333     0.750000000000     0          
T        Si     0.970366666667     0.527233333333     0.937300000000     0          
T        Si     0.749266666667     0.415933333333     0.500000000000     0          
T        Si     0.776466666667     0.637033333333     0.687300000000     0          
T        Si     0.666666666667     0.415933333333     0.750000000000     0          
T        Si     0.890200000000     0.527233333333     0.812700000000     0          
T        Si     0.696300000000     0.556866666667     0.562700000000     0          
T        Si     0.806100000000     0.362966666667     0.812700000000     0          
T        Si     0.776466666667     0.472766666667     0.562700000000     0          
T        Si     0.970366666667     0.443133333333     0.812700000000     0          
T        Si     0.860566666667     0.637033333333     0.562700000000     0          
T        Si     0.860566666667     0.890200000000     0.062700000000     0          
T        Si     0.748866666667     0.998833333333     0.125000000000     0          
T        Si     0.749266666667     0.666666666667     0.000000000000     0          
T        Si     0.970366666667     0.860566666667     0.312700000000     0          
T        Si     0.750033333333     0.748866666667     0.375000000000     0          
T        Si     0.749266666667     0.749266666667     0.250000000000     0          
T        Si     0.776466666667     0.970366666667     0.062700000000     0          
T        Si     0.667833333333     0.750033333333     0.125000000000     0          
T        Si     0.666666666667     0.749266666667     0.000000000000     0          
T        Si     0.806100000000     0.776466666667     0.312700000000     0          
T        Si     0.917800000000     0.667833333333     0.375000000000     0          
T        Si     0.917400000000     0.666666666667     0.250000000000     0          
T        Si     0.696300000000     0.806100000000     0.062700000000     0          
T        Si     0.916633333333     0.917800000000     0.125000000000     0          
T        Si     0.917400000000     0.917400000000     0.000000000000     0          
T        Si     0.890200000000     0.696300000000     0.312700000000     0          
T        Si     0.998833333333     0.916633333333     0.375000000000     0          
T        Si     0.666666666667     0.917400000000     0.250000000000     0          
T        Si     0.776466666667     0.806100000000     0.187300000000     0          
T        Si     0.667833333333     0.917800000000     0.125000000000     0          
T        Si     0.970366666667     0.776466666667     0.437300000000     0          
T        Si     0.750033333333     0.667833333333     0.375000000000     0          
T        Si     0.860566666667     0.970366666667     0.187300000000     0          
T        Si     0.748866666667     0.750033333333     0.125000000000     0          
T        Si     0.890200000000     0.860566666667     0.437300000000     0          
T        Si     0.998833333333     0.748866666667     0.375000000000     0          
T        Si     0.696300000000     0.890200000000     0.187300000000     0          
T        Si     0.916633333333     0.998833333333     0.125000000000     0          
T        Si     0.806100000000     0.696300000000     0.437300000000     0          
T        Si     0.917800000000     0.916633333333     0.375000000000     0          
T        Si     0.806100000000     0.776466666667     0.437300000000     0          
T        Si     0.917400000000     0.666666666667     0.000000000000     0          
T        Si     0.696300000000     0.806100000000     0.187300000000     0          
T        Si     0.917400000000     0.917400000000     0.250000000000     0          
T        Si     0.890200000000     0.696300000000     0.437300000000     0          
T        Si     0.666666666667     0.917400000000     0.000000000000     0          
T        Si     0.860566666667     0.890200000000     0.187300000000     0          
T        Si     0.749266666667     0.666666666667     0.250000000000     0          
T        Si     0.970366666667     0.860566666667     0.437300000000     0          
T        Si     0.749266666667     0.749266666667     0.000000000000     0          
T        Si     0.776466666667     0.970366666667     0.187300000000     0          
T        Si     0.666666666667     0.749266666667     0.250000000000     0          
T        Si     0.890200000000     0.860566666667     0.312700000000     0          
T        Si     0.696300000000     0.890200000000     0.062700000000     0          
T        Si     0.806100000000     0.696300000000     0.312700000000     0          
T        Si     0.776466666667     0.806100000000     0.062700000000     0          
T        Si     0.970366666667     0.776466666667     0.312700000000     0          
T        Si     0.860566666667     0.970366666667     0.062700000000     0          
T        Si     0.860566666667     0.890200000000     0.562700000000     0          
T        Si     0.748866666667     0.998833333333     0.625000000000     0          
T        Si     0.749266666667     0.666666666667     0.500000000000     0          
T        Si     0.970366666667     0.860566666667     0.812700000000     0          
T        Si     0.750033333333     0.748866666667     0.875000000000     0          
T        Si     0.749266666667     0.749266666667     0.750000000000     0          
T        Si     0.776466666667     0.970366666667     0.562700000000     0          
T        Si     0.667833333333     0.750033333333     0.625000000000     0          
T        Si     0.666666666667     0.749266666667     0.500000000000     0          
T        Si     0.806100000000     0.776466666667     0.812700000000     0          
T        Si     0.917800000000     0.667833333333     0.875000000000     0          
T        Si     0.917400000000     0.666666666667     0.750000000000     0          
T        Si     0.696300000000     0.806100000000     0.562700000000     0          
T        Si     0.916633333333     0.917800000000     0.625000000000     0          
T        Si     0.917400000000     0.917400000000     0.500000000000     0          
T        Si     0.890200000000     0.696300000000     0.812700000000     0          
T        Si     0.998833333333     0.916633333333     0.875000000000     0          
T        Si     0.666666666667     0.917400000000     0.750000000000     0          
T        Si     0.776466666667     0.806100000000     0.687300000000     0          
T        Si     0.667833333333     0.917800000000     0.625000000000     0          
T        Si     0.970366666667     0.776466666667     0.937300000000     0          
T        Si     0.750033333333     0.667833333333     0.875000000000     0          
T        Si     0.860566666667     0.970366666667     0.687300000000     0          
T        Si     0.748866666667     0.750033333333     0.625000000000     0          
T        Si     0.890200000000     0.860566666667     0.937300000000     0          
T        Si     0.998833333333     0.748866666667     0.875000000000     0          
T        Si     0.696300000000     0.890200000000     0.687300000000     0          
T        Si     0.916633333333     0.998833333333     0.625000000000     0          
T        Si     0.806100000000     0.696300000000     0.937300000000     0          
T        Si     0.917800000000     0.916633333333     0.875000000000     0          
T        Si     0.806100000000     0.776466666667     0.937300000000     0          
T        Si     0.917400000000     0.666666666667     0.500000000000     0          
T        Si     0.696300000000     0.806100000000     0.687300000000     0          
T        Si     0.917400000000     0.917400000000     0.750000000000     0          
T        Si     0.890200000000     0.696300000000     0.937300000000     0          
T        Si     0.666666666667     0.917400000000     0.500000000000     0          
T        Si     0.860566666667     0.890200000000     0.687300000000     0          
T        Si     0.749266666667     0.666666666667     0.750000000000     0          
T        Si     0.970366666667     0.860566666667     0.937300000000     0          
T        Si     0.749266666667     0.749266666667     0.500000000000     0          
T        Si     0.776466666667     0.970366666667     0.687300000000     0          
T        Si     0.666666666667     0.749266666667     0.750000000000     0          
T        Si     0.890200000000     0.860566666667     0.812700000000     0          
T        Si     0.696300000000     0.890200000000     0.562700000000     0          
T        Si     0.806100000000     0.696300000000     0.812700000000     0          
T        Si     0.776466666667     0.806100000000     0.562700000000     0          
T        Si     0.970366666667     0.776466666667     0.812700000000     0          
T        Si     0.860566666667     0.970366666667     0.562700000000     0          
O        O      0.220266666667     0.231766666667     0.030300000000     0          
O        O      0.222666666667     0.230400000000     0.093400000000     0          
O        O      0.176766666667     0.255066666667     0.064400000000     0          
O        O      0.156166666667     0.177133333333     0.062650000000     0          
O        O      0.033766666667     0.299566666667     0.125000000000     0          
O        O      0.089466666667     0.044733333333     0.125000000000     0          
O        O      0.038633333333     0.294733333333     0.490950000000     0          
O        O      0.321833333333     0.220266666667     0.280300000000     0          
O        O      0.325600000000     0.222666666667     0.343400000000     0          
O        O      0.255033333333     0.176766666667     0.314400000000     0          
O        O      0.312366666667     0.156166666667     0.312650000000     0          
O        O      0.067533333333     0.033766666667     0.375000000000     0          
O        O      0.044733333333     0.089466666667     0.375000000000     0          
O        O      0.077233333333     0.038633333333     0.240950000000     0          
O        O      0.101566666667     0.321833333333     0.030300000000     0          
O        O      0.102933333333     0.325600000000     0.093400000000     0          
O        O      0.078266666667     0.255033333333     0.064400000000     0          
O        O      0.156200000000     0.312366666667     0.062650000000     0          
O        O      0.033766666667     0.067533333333     0.125000000000     0          
O        O      0.288600000000     0.044733333333     0.125000000000     0          
O        O      0.038600000000     0.077233333333     0.490950000000     0          
O        O      0.113066666667     0.101566666667     0.280300000000     0          
O        O      0.110666666667     0.102933333333     0.343400000000     0          
O        O      0.156566666667     0.078266666667     0.314400000000     0          
O        O      0.177166666667     0.156200000000     0.312650000000     0          
O        O      0.299566666667     0.033766666667     0.375000000000     0          
O        O      0.243866666667     0.288600000000     0.375000000000     0          
O        O      0.294700000000     0.038600000000     0.240950000000     0          
O        O      0.011500000000     0.113066666667     0.030300000000     0          
O        O      0.007733333333     0.110666666667     0.093400000000     0          
O        O      0.078300000000     0.156566666667     0.064400000000     0          
O        O      0.020966666667     0.177166666667     0.062650000000     0          
O        O      0.265800000000     0.299566666667     0.125000000000     0          
O        O      0.288600000000     0.243866666667     0.125000000000     0          
O        O      0.256100000000     0.294700000000     0.490950000000     0          
O        O      0.231766666667     0.011500000000     0.280300000000     0          
O        O      0.230400000000     0.007733333333     0.343400000000     0          
O        O      0.255066666667     0.078300000000     0.314400000000     0          
O        O      0.177133333333     0.020966666667     0.312650000000     0          
O        O      0.299566666667     0.265800000000     0.375000000000     0          
O        O      0.044733333333     0.288600000000     0.375000000000     0          
O        O      0.294733333333     0.256100000000     0.240950000000     0          
O        O      0.101566666667     0.113066666667     0.219700000000     0          
O        O      0.102933333333     0.110666666667     0.156600000000     0          
O        O      0.078266666667     0.156566666667     0.185600000000     0          
O        O      0.156200000000     0.177166666667     0.187350000000     0          
O        O      0.038600000000     0.294700000000     0.259050000000     0          
O        O      0.321833333333     0.101566666667     0.469700000000     0          
O        O      0.325600000000     0.102933333333     0.406600000000     0          
O        O      0.255033333333     0.078266666667     0.435600000000     0          
O        O      0.312366666667     0.156200000000     0.437350000000     0          
O        O      0.077233333333     0.038600000000     0.009050000000     0          
O        O      0.220266666667     0.321833333333     0.219700000000     0          
O        O      0.222666666667     0.325600000000     0.156600000000     0          
O        O      0.176766666667     0.255033333333     0.185600000000     0          
O        O      0.156166666667     0.312366666667     0.187350000000     0          
O        O      0.038633333333     0.077233333333     0.259050000000     0          
O        O      0.231766666667     0.220266666667     0.469700000000     0          
O        O      0.230400000000     0.222666666667     0.406600000000     0          
O        O      0.255066666667     0.176766666667     0.435600000000     0          
O        O      0.177133333333     0.156166666667     0.437350000000     0          
O        O      0.294733333333     0.038633333333     0.009050000000     0          
O        O      0.011500000000     0.231766666667     0.219700000000     0          
O        O      0.007733333333     0.230400000000     0.156600000000     0          
O        O      0.078300000000     0.255066666667     0.185600000000     0          
O        O      0.020966666667     0.177133333333     0.187350000000     0          
O        O      0.256100000000     0.294733333333     0.259050000000     0          
O        O      0.113066666667     0.011500000000     0.469700000000     0          
O        O      0.110666666667     0.007733333333     0.406600000000     0          
O        O      0.156566666667     0.078300000000     0.435600000000     0          
O        O      0.177166666667     0.020966666667     0.437350000000     0          
O        O      0.294700000000     0.256100000000     0.009050000000     0          
O        O      0.113066666667     0.101566666667     0.469700000000     0          
O        O      0.110666666667     0.102933333333     0.406600000000     0          
O        O      0.011500000000     0.113066666667     0.219700000000     0          
O        O      0.007733333333     0.110666666667     0.156600000000     0          
O        O      0.231766666667     0.011500000000     0.469700000000     0          
O        O      0.230400000000     0.007733333333     0.406600000000     0          
O        O      0.220266666667     0.231766666667     0.219700000000     0          
O        O      0.222666666667     0.230400000000     0.156600000000     0          
O        O      0.321833333333     0.220266666667     0.469700000000     0          
O        O      0.325600000000     0.222666666667     0.406600000000     0          
O        O      0.101566666667     0.321833333333     0.219700000000     0          
O        O      0.102933333333     0.325600000000     0.156600000000     0          
O        O      0.231766666667     0.220266666667     0.280300000000     0          
O        O      0.230400000000     0.222666666667     0.343400000000     0          
O        O      0.011500000000     0.231766666667     0.030300000000     0          
O        O      0.007733333333     0.230400000000     0.093400000000     0          
O        O      0.113066666667     0.011500000000     0.280300000000     0          
O        O      0.110666666667     0.007733333333     0.343400000000     0          
O        O      0.101566666667     0.113066666667     0.030300000000     0          
O        O      0.102933333333     0.110666666667     0.093400000000     0          
O        O      0.321833333333     0.101566666667     0.280300000000     0          
O        O      0.325600000000     0.102933333333     0.343400000000     0          
O        O      0.220266666667     0.321833333333     0.030300000000     0          
O        O      0.222666666667     0.325600000000     0.093400000000     0          
O        O      0.220266666667     0.231766666667     0.530300000000     0          
O        O      0.222666666667     0.230400000000     0.593400000000     0          
O        O      0.176766666667     0.255066666667     0.564400000000     0          
O        O      0.156166666667     0.177133333333     0.562650000000     0          
O        O      0.033766666667     0.299566666667     0.625000000000     0          
O        O      0.089466666667     0.044733333333     0.625000000000     0          
O        O      0.038633333333     0.294733333333     0.990950000000     0          
O        O      0.321833333333     0.220266666667     0.780300000000     0          
O        O      0.325600000000     0.222666666667     0.843400000000     0          
O        O      0.255033333333     0.176766666667     0.814400000000     0          
O        O      0.312366666667     0.156166666667     0.812650000000     0          
O        O      0.067533333333     0.033766666667     0.875000000000     0          
O        O      0.044733333333     0.089466666667     0.875000000000     0          
O        O      0.077233333333     0.038633333333     0.740950000000     0          
O        O      0.101566666667     0.321833333333     0.530300000000     0          
O        O      0.102933333333     0.325600000000     0.593400000000     0          
O        O      0.078266666667     0.255033333333     0.564400000000     0          
O        O      0.156200000000     0.312366666667     0.562650000000     0          
O        O      0.033766666667     0.067533333333     0.625000000000     0          
O        O      0.288600000000     0.044733333333     0.625000000000     0          
O        O      0.038600000000     0.077233333333     0.990950000000     0          
O        O      0.113066666667     0.101566666667     0.780300000000     0          
O        O      0.110666666667     0.102933333333     0.843400000000     0          
O        O      0.156566666667     0.078266666667     0.814400000000     0          
O        O      0.177166666667     0.156200000000     0.812650000000     0          
O        O      0.299566666667     0.033766666667     0.875000000000     0          
O        O      0.243866666667     0.288600000000     0.875000000000     0          
O        O      0.294700000000     0.038600000000     0.740950000000     0          
O        O      0.011500000000     0.113066666667     0.530300000000     0          
O        O      0.007733333333     0.110666666667     0.593400000000     0          
O        O      0.078300000000     0.156566666667     0.564400000000     0          
O        O      0.020966666667     0.177166666667     0.562650000000     0          
O        O      0.265800000000     0.299566666667     0.625000000000     0          
O        O      0.288600000000     0.243866666667     0.625000000000     0          
O        O      0.256100000000     0.294700000000     0.990950000000     0          
O        O      0.231766666667     0.011500000000     0.780300000000     0          
O        O      0.230400000000     0.007733333333     0.843400000000     0          
O        O      0.255066666667     0.078300000000     0.814400000000     0          
O        O      0.177133333333     0.020966666667     0.812650000000     0          
O        O      0.299566666667     0.265800000000     0.875000000000     0          
O        O      0.044733333333     0.288600000000     0.875000000000     0          
O        O      0.294733333333     0.256100000000     0.740950000000     0          
O        O      0.101566666667     0.113066666667     0.719700000000     0          
O        O      0.102933333333     0.110666666667     0.656600000000     0          
O        O      0.078266666667     0.156566666667     0.685600000000     0          
O        O      0.156200000000     0.177166666667     0.687350000000     0          
O        O      0.038600000000     0.294700000000     0.759050000000     0          
O        O      0.321833333333     0.101566666667     0.969700000000     0          
O        O      0.325600000000     0.102933333333     0.906600000000     0          
O        O      0.255033333333     0.078266666667     0.935600000000     0          
O        O      0.312366666667     0.156200000000     0.937350000000     0          
O        O      0.077233333333     0.038600000000     0.509050000000     0          
O        O      0.220266666667     0.321833333333     0.719700000000     0          
O        O      0.222666666667     0.325600000000     0.656600000000     0          
O        O      0.176766666667     0.255033333333     0.685600000000     0          
O        O      0.156166666667     0.312366666667     0.687350000000     0          
O        O      0.038633333333     0.077233333333     0.759050000000     0          
O        O      0.231766666667     0.220266666667     0.969700000000     0          
O        O      0.230400000000     0.222666666667     0.906600000000     0          
O        O      0.255066666667     0.176766666667     0.935600000000     0          
O        O      0.177133333333     0.156166666667     0.937350000000     0          
O        O      0.294733333333     0.038633333333     0.509050000000     0          
O        O      0.011500000000     0.231766666667     0.719700000000     0          
O        O      0.007733333333     0.230400000000     0.656600000000     0          
O        O      0.078300000000     0.255066666667     0.685600000000     0          
O        O      0.020966666667     0.177133333333     0.687350000000     0          
O        O      0.256100000000     0.294733333333     0.759050000000     0          
O        O      0.113066666667     0.011500000000     0.969700000000     0          
O        O      0.110666666667     0.007733333333     0.906600000000     0          
O        O      0.156566666667     0.078300000000     0.935600000000     0          
O        O      0.177166666667     0.020966666667     0.937350000000     0          
O        O      0.294700000000     0.256100000000     0.509050000000     0          
O        O      0.113066666667     0.101566666667     0.969700000000     0          
O        O      0.110666666667     0.102933333333     0.906600000000     0          
O        O      0.011500000000     0.113066666667     0.719700000000     0          
O        O      0.007733333333     0.110666666667     0.656600000000     0          
O        O      0.231766666667     0.011500000000     0.969700000000     0          
O        O      0.230400000000     0.007733333333     0.906600000000     0          
O        O      0.220266666667     0.231766666667     0.719700000000     0          
O        O      0.222666666667     0.230400000000     0.656600000000     0          
O        O      0.321833333333     0.220266666667     0.969700000000     0          
O        O      0.325600000000     0.222666666667     0.906600000000     0          
O        O      0.101566666667     0.321833333333     0.719700000000     0          
O        O      0.102933333333     0.325600000000     0.656600000000     0          
O        O      0.231766666667     0.220266666667     0.780300000000     0          
O        O      0.230400000000     0.222666666667     0.843400000000     0          
O        O      0.011500000000     0.231766666667     0.530300000000     0          
O        O      0.007733333333     0.230400000000     0.593400000000     0          
O        O      0.113066666667     0.011500000000     0.780300000000     0          
O        O      0.110666666667     0.007733333333     0.843400000000     0          
O        O      0.101566666667     0.113066666667     0.530300000000     0          
O        O      0.102933333333     0.110666666667     0.593400000000     0          
O        O      0.321833333333     0.101566666667     0.780300000000     0          
O        O      0.325600000000     0.102933333333     0.843400000000     0          
O        O      0.220266666667     0.321833333333     0.530300000000     0          
O        O      0.222666666667     0.325600000000     0.593400000000     0          
O        O      0.220266666667     0.565100000000     0.030300000000     0          
O        O      0.222666666667     0.563733333333     0.093400000000     0          
O        O      0.176766666667     0.588400000000     0.064400000000     0          
O        O      0.156166666667     0.510466666667     0.062650000000     0          
O        O      0.033766666667     0.632900000000     0.125000000000     0          
O        O      0.089466666667     0.378066666667     0.125000000000     0          
O        O      0.038633333333     0.628066666667     0.490950000000     0          
O        O      0.321833333333     0.553600000000     0.280300000000     0          
O        O      0.325600000000     0.556000000000     0.343400000000     0          
O        O      0.255033333333     0.510100000000     0.314400000000     0          
O        O      0.312366666667     0.489500000000     0.312650000000     0          
O        O      0.067533333333     0.367100000000     0.375000000000     0          
O        O      0.044733333333     0.422800000000     0.375000000000     0          
O        O      0.077233333333     0.371966666667     0.240950000000     0          
O        O      0.101566666667     0.655166666667     0.030300000000     0          
O        O      0.102933333333     0.658933333333     0.093400000000     0          
O        O      0.078266666667     0.588366666667     0.064400000000     0          
O        O      0.156200000000     0.645700000000     0.062650000000     0          
O        O      0.033766666667     0.400866666667     0.125000000000     0          
O        O      0.288600000000     0.378066666667     0.125000000000     0          
O        O      0.038600000000     0.410566666667     0.490950000000     0          
O        O      0.113066666667     0.434900000000     0.280300000000     0          
O        O      0.110666666667     0.436266666667     0.343400000000     0          
O        O      0.156566666667     0.411600000000     0.314400000000     0          
O        O      0.177166666667     0.489533333333     0.312650000000     0          
O        O      0.299566666667     0.367100000000     0.375000000000     0          
O        O      0.243866666667     0.621933333333     0.375000000000     0          
O        O      0.294700000000     0.371933333333     0.240950000000     0          
O        O      0.011500000000     0.446400000000     0.030300000000     0          
O        O      0.007733333333     0.444000000000     0.093400000000     0          
O        O      0.078300000000     0.489900000000     0.064400000000     0          
O        O      0.020966666667     0.510500000000     0.062650000000     0          
O        O      0.265800000000     0.632900000000     0.125000000000     0          
O        O      0.288600000000     0.577200000000     0.125000000000     0          
O        O      0.256100000000     0.628033333333     0.490950000000     0          
O        O      0.231766666667     0.344833333333     0.280300000000     0          
O        O      0.230400000000     0.341066666667     0.343400000000     0          
O        O      0.255066666667     0.411633333333     0.314400000000     0          
O        O      0.177133333333     0.354300000000     0.312650000000     0          
O        O      0.299566666667     0.599133333333     0.375000000000     0          
O        O      0.044733333333     0.621933333333     0.375000000000     0          
O        O      0.294733333333     0.589433333333     0.240950000000     0          
O        O      0.101566666667     0.446400000000     0.219700000000     0          
O        O      0.102933333333     0.444000000000     0.156600000000     0          
O        O      0.078266666667     0.489900000000     0.185600000000     0          
O        O      0.156200000000     0.510500000000     0.187350000000     0          
O        O      0.038600000000     0.628033333333     0.259050000000     0          
O        O      0.321833333333     0.434900000000     0.469700000000     0          
O        O      0.325600000000     0.436266666667     0.406600000000     0          
O        O      0.255033333333     0.411600000000     0.435600000000     0          
O        O      0.312366666667     0.489533333333     0.437350000000     0          
O        O      0.077233333333     0.371933333333     0.009050000000     0          
O        O      0.220266666667     0.655166666667     0.219700000000     0          
O        O      0.222666666667     0.658933333333     0.156600000000     0          
O        O      0.176766666667     0.588366666667     0.185600000000     0          
O        O      0.156166666667     0.645700000000     0.187350000000     0          
O        O      0.038633333333     0.410566666667     0.259050000000     0          
O        O      0.231766666667     0.553600000000     0.469700000000     0          
O        O      0.230400000000     0.556000000000     0.406600000000     0          
O        O      0.255066666667     0.510100000000     0.435600000000     0          
O        O      0.177133333333     0.489500000000     0.437350000000     0          
O        O      0.294733333333     0.371966666667     0.009050000000     0          
O        O      0.011500000000     0.565100000000     0.219700000000     0          
O        O      0.007733333333     0.563733333333     0.156600000000     0          
O        O      0.078300000000     0.588400000000     0.185600000000     0          
O        O      0.020966666667     0.510466666667     0.187350000000     0          
O        O      0.256100000000     0.628066666667     0.259050000000     0          
O        O      0.113066666667     0.344833333333     0.469700000000     0          
O        O      0.110666666667     0.341066666667     0.406600000000     0          
O        O      0.156566666667     0.411633333333     0.435600000000     0          
O        O      0.177166666667     0.354300000000     0.437350000000     0          
O        O      0.294700000000     0.589433333333     0.009050000000     0          
O        O      0.113066666667     0.434900000000     0.469700000000     0          
O        O      0.110666666667     0.436266666667     0.406600000000     0          
O        O      0.011500000000     0.446400000000     0.219700000000     0          
O        O      0.007733333333     0.444000000000     0.156600000000     0          
O        O      0.231766666667     0.344833333333     0.469700000000     0          
O        O      0.230400000000     0.341066666667     0.406600000000     0          
O        O      0.220266666667     0.565100000000     0.219700000000     0          
O        O      0.222666666667     0.563733333333     0.156600000000     0          
O        O      0.321833333333     0.553600000000     0.469700000000     0          
O        O      0.325600000000     0.556000000000     0.406600000000     0          
O        O      0.101566666667     0.655166666667     0.219700000000     0          
O        O      0.102933333333     0.658933333333     0.156600000000     0          
O        O      0.231766666667     0.553600000000     0.280300000000     0          
O        O      0.230400000000     0.556000000000     0.343400000000     0          
O        O      0.011500000000     0.565100000000     0.030300000000     0          
O        O      0.007733333333     0.563733333333     0.093400000000     0          
O        O      0.113066666667     0.344833333333     0.280300000000     0          
O        O      0.110666666667     0.341066666667     0.343400000000     0          
O        O      0.101566666667     0.446400000000     0.030300000000     0          
O        O      0.102933333333     0.444000000000     0.093400000000     0          
O        O      0.321833333333     0.434900000000     0.280300000000     0          
O        O      0.325600000000     0.436266666667     0.343400000000     0          
O        O      0.220266666667     0.655166666667     0.030300000000     0          
O        O      0.222666666667     0.658933333333     0.093400000000     0          
O        O      0.220266666667     0.565100000000     0.530300000000     0          
O        O      0.222666666667     0.563733333333     0.593400000000     0          
O        O      0.176766666667     0.588400000000     0.564400000000     0          
O        O      0.156166666667     0.510466666667     0.562650000000     0          
O        O      0.033766666667     0.632900000000     0.625000000000     0          
O        O      0.089466666667     0.378066666667     0.625000000000     0          
O        O      0.038633333333     0.628066666667     0.990950000000     0          
O        O      0.321833333333     0.553600000000     0.780300000000     0          
O        O      0.325600000000     0.556000000000     0.843400000000     0          
O        O      0.255033333333     0.510100000000     0.814400000000     0          
O        O      0.312366666667     0.489500000000     0.812650000000     0          
O        O      0.067533333333     0.367100000000     0.875000000000     0          
O        O      0.044733333333     0.422800000000     0.875000000000     0          
O        O      0.077233333333     0.371966666667     0.740950000000     0          
O        O      0.101566666667     0.655166666667     0.530300000000     0          
O        O      0.102933333333     0.658933333333     0.593400000000     0          
O        O      0.078266666667     0.588366666667     0.564400000000     0          
O        O      0.156200000000     0.645700000000     0.562650000000     0          
O        O      0.033766666667     0.400866666667     0.625000000000     0          
O        O      0.288600000000     0.378066666667     0.625000000000     0          
O        O      0.038600000000     0.410566666667     0.990950000000     0          
O        O      0.113066666667     0.434900000000     0.780300000000     0          
O        O      0.110666666667     0.436266666667     0.843400000000     0          
O        O      0.156566666667     0.411600000000     0.814400000000     0          
O        O      0.177166666667     0.489533333333     0.812650000000     0          
O        O      0.299566666667     0.367100000000     0.875000000000     0          
O        O      0.243866666667     0.621933333333     0.875000000000     0          
O        O      0.294700000000     0.371933333333     0.740950000000     0          
O        O      0.011500000000     0.446400000000     0.530300000000     0          
O        O      0.007733333333     0.444000000000     0.593400000000     0          
O        O      0.078300000000     0.489900000000     0.564400000000     0          
O        O      0.020966666667     0.510500000000     0.562650000000     0          
O        O      0.265800000000     0.632900000000     0.625000000000     0          
O        O      0.288600000000     0.577200000000     0.625000000000     0          
O        O      0.256100000000     0.628033333333     0.990950000000     0          
O        O      0.231766666667     0.344833333333     0.780300000000     0          
O        O      0.230400000000     0.341066666667     0.843400000000     0          
O        O      0.255066666667     0.411633333333     0.814400000000     0          
O        O      0.177133333333     0.354300000000     0.812650000000     0          
O        O      0.299566666667     0.599133333333     0.875000000000     0          
O        O      0.044733333333     0.621933333333     0.875000000000     0          
O        O      0.294733333333     0.589433333333     0.740950000000     0          
O        O      0.101566666667     0.446400000000     0.719700000000     0          
O        O      0.102933333333     0.444000000000     0.656600000000     0          
O        O      0.078266666667     0.489900000000     0.685600000000     0          
O        O      0.156200000000     0.510500000000     0.687350000000     0          
O        O      0.038600000000     0.628033333333     0.759050000000     0          
O        O      0.321833333333     0.434900000000     0.969700000000     0          
O        O      0.325600000000     0.436266666667     0.906600000000     0          
O        O      0.255033333333     0.411600000000     0.935600000000     0          
O        O      0.312366666667     0.489533333333     0.937350000000     0          
O        O      0.077233333333     0.371933333333     0.509050000000     0          
O        O      0.220266666667     0.655166666667     0.719700000000     0          
O        O      0.222666666667     0.658933333333     0.656600000000     0          
O        O      0.176766666667     0.588366666667     0.685600000000     0          
O        O      0.156166666667     0.645700000000     0.687350000000     0          
O        O      0.038633333333     0.410566666667     0.759050000000     0          
O        O      0.231766666667     0.553600000000     0.969700000000     0          
O        O      0.230400000000     0.556000000000     0.906600000000     0          
O        O      0.255066666667     0.510100000000     0.935600000000     0          
O        O      0.177133333333     0.489500000000     0.937350000000     0          
O        O      0.294733333333     0.371966666667     0.509050000000     0          
O        O      0.011500000000     0.565100000000     0.719700000000     0          
O        O      0.007733333333     0.563733333333     0.656600000000     0          
O        O      0.078300000000     0.588400000000     0.685600000000     0          
O        O      0.020966666667     0.510466666667     0.687350000000     0          
O        O      0.256100000000     0.628066666667     0.759050000000     0          
O        O      0.113066666667     0.344833333333     0.969700000000     0          
O        O      0.110666666667     0.341066666667     0.906600000000     0          
O        O      0.156566666667     0.411633333333     0.935600000000     0          
O        O      0.177166666667     0.354300000000     0.937350000000     0          
O        O      0.294700000000     0.589433333333     0.509050000000     0          
O        O      0.113066666667     0.434900000000     0.969700000000     0          
O        O      0.110666666667     0.436266666667     0.906600000000     0          
O        O      0.011500000000     0.446400000000     0.719700000000     0          
O        O      0.007733333333     0.444000000000     0.656600000000     0          
O        O      0.231766666667     0.344833333333     0.969700000000     0          
O        O      0.230400000000     0.341066666667     0.906600000000     0          
O        O      0.220266666667     0.565100000000     0.719700000000     0          
O        O      0.222666666667     0.563733333333     0.656600000000     0          
O        O      0.321833333333     0.553600000000     0.969700000000     0          
O        O      0.325600000000     0.556000000000     0.906600000000     0          
O        O      0.101566666667     0.655166666667     0.719700000000     0          
O        O      0.102933333333     0.658933333333     0.656600000000     0          
O        O      0.231766666667     0.553600000000     0.780300000000     0          
O        O      0.230400000000     0.556000000000     0.843400000000     0          
O        O      0.011500000000     0.565100000000     0.530300000000     0          
O        O      0.007733333333     0.563733333333     0.593400000000     0          
O        O      0.113066666667     0.344833333333     0.780300000000     0          
O        O      0.110666666667     0.341066666667     0.843400000000     0          
O        O      0.101566666667     0.446400000000     0.530300000000     0          
O        O      0.102933333333     0.444000000000     0.593400000000     0          
O        O      0.321833333333     0.434900000000     0.780300000000     0          
O        O      0.325600000000     0.436266666667     0.843400000000     0          
O        O      0.220266666667     0.655166666667     0.530300000000     0          
O        O      0.222666666667     0.658933333333     0.593400000000     0          
O        O      0.220266666667     0.898433333333     0.030300000000     0          
O        O      0.222666666667     0.897066666667     0.093400000000     0          
O        O      0.176766666667     0.921733333333     0.064400000000     0          
O        O      0.156166666667     0.843800000000     0.062650000000     0          
O        O      0.033766666667     0.966233333333     0.125000000000     0          
O        O      0.089466666667     0.711400000000     0.125000000000     0          
O        O      0.038633333333     0.961400000000     0.490950000000     0          
O        O      0.321833333333     0.886933333333     0.280300000000     0          
O        O      0.325600000000     0.889333333333     0.343400000000     0          
O        O      0.255033333333     0.843433333333     0.314400000000     0          
O        O      0.312366666667     0.822833333333     0.312650000000     0          
O        O      0.067533333333     0.700433333333     0.375000000000     0          
O        O      0.044733333333     0.756133333333     0.375000000000     0          
O        O      0.077233333333     0.705300000000     0.240950000000     0          
O        O      0.101566666667     0.988500000000     0.030300000000     0          
O        O      0.102933333333     0.992266666667     0.093400000000     0          
O        O      0.078266666667     0.921700000000     0.064400000000     0          
O        O      0.156200000000     0.979033333333     0.062650000000     0          
O        O      0.033766666667     0.734200000000     0.125000000000     0          
O        O      0.288600000000     0.711400000000     0.125000000000     0          
O        O      0.038600000000     0.743900000000     0.490950000000     0          
O        O      0.113066666667     0.768233333333     0.280300000000     0          
O        O      0.110666666667     0.769600000000     0.343400000000     0          
O        O      0.156566666667     0.744933333333     0.314400000000     0          
O        O      0.177166666667     0.822866666667     0.312650000000     0          
O        O      0.299566666667     0.700433333333     0.375000000000     0          
O        O      0.243866666667     0.955266666667     0.375000000000     0          
O        O      0.294700000000     0.705266666667     0.240950000000     0          
O        O      0.011500000000     0.779733333333     0.030300000000     0          
O        O      0.007733333333     0.777333333333     0.093400000000     0          
O        O      0.078300000000     0.823233333333     0.064400000000     0          
O        O      0.020966666667     0.843833333333     0.062650000000     0          
O        O      0.265800000000     0.966233333333     0.125000000000     0          
O        O      0.288600000000     0.910533333333     0.125000000000     0          
O        O      0.256100000000     0.961366666667     0.490950000000     0          
O        O      0.231766666667     0.678166666667     0.280300000000     0          
O        O      0.230400000000     0.674400000000     0.343400000000     0          
O        O      0.255066666667     0.744966666667     0.314400000000     0          
O        O      0.177133333333     0.687633333333     0.312650000000     0          
O        O      0.299566666667     0.932466666667     0.375000000000     0          
O        O      0.044733333333     0.955266666667     0.375000000000     0          
O        O      0.294733333333     0.922766666667     0.240950000000     0          
O        O      0.101566666667     0.779733333333     0.219700000000     0          
O        O      0.102933333333     0.777333333333     0.156600000000     0          
O        O      0.078266666667     0.823233333333     0.185600000000     0          
O        O      0.156200000000     0.843833333333     0.187350000000     0          
O        O      0.038600000000     0.961366666667     0.259050000000     0          
O        O      0.321833333333     0.768233333333     0.469700000000     0          
O        O      0.325600000000     0.769600000000     0.406600000000     0          
O        O      0.255033333333     0.744933333333     0.435600000000     0          
O        O      0.312366666667     0.822866666667     0.437350000000     0          
O        O      0.077233333333     0.705266666667     0.009050000000     0          
O        O      0.220266666667     0.988500000000     0.219700000000     0          
O        O      0.222666666667     0.992266666667     0.156600000000     0          
O        O      0.176766666667     0.921700000000     0.185600000000     0          
O        O      0.156166666667     0.979033333333     0.187350000000     0          
O        O      0.038633333333     0.743900000000     0.259050000000     0          
O        O      0.231766666667     0.886933333333     0.469700000000     0          
O        O      0.230400000000     0.889333333333     0.406600000000     0          
O        O      0.255066666667     0.843433333333     0.435600000000     0          
O        O      0.177133333333     0.822833333333     0.437350000000     0          
O        O      0.294733333333     0.705300000000     0.009050000000     0          
O        O      0.011500000000     0.898433333333     0.219700000000     0          
O        O      0.007733333333     0.897066666667     0.156600000000     0          
O        O      0.078300000000     0.921733333333     0.185600000000     0          
O        O      0.020966666667     0.843800000000     0.187350000000     0          
O        O      0.256100000000     0.961400000000     0.259050000000     0          
O        O      0.113066666667     0.678166666667     0.469700000000     0          
O        O      0.110666666667     0.674400000000     0.406600000000     0          
O        O      0.156566666667     0.744966666667     0.435600000000     0          
O        O      0.177166666667     0.687633333333     0.437350000000     0          
O        O      0.294700000000     0.922766666667     0.009050000000     0          
O        O      0.113066666667     0.768233333333     0.469700000000     0          
O        O      0.110666666667     0.769600000000     0.406600000000     0          
O        O      0.011500000000     0.779733333333     0.219700000000     0          
O        O      0.007733333333     0.777333333333     0.156600000000     0          
O        O      0.231766666667     0.678166666667     0.469700000000     0          
O        O      0.230400000000     0.674400000000     0.406600000000     0          
O        O      0.220266666667     0.898433333333     0.219700000000     0          
O        O      0.222666666667     0.897066666667     0.156600000000     0          
O        O      0.321833333333     0.886933333333     0.469700000000     0          
O        O      0.325600000000     0.889333333333     0.406600000000     0          
O        O      0.101566666667     0.988500000000     0.219700000000     0          
O        O      0.102933333333     0.992266666667     0.156600000000     0          
O        O      0.231766666667     0.886933333333     0.280300000000     0          
O        O      0.230400000000     0.889333333333     0.343400000000     0          
O        O      0.011500000000     0.898433333333     0.030300000000     0          
O        O      0.007733333333     0.897066666667     0.093400000000     0          
O        O      0.113066666667     0.678166666667     0.280300000000     0          
O        O      0.110666666667     0.674400000000     0.343400000000     0          
O        O      0.101566666667     0.779733333333     0.030300000000     0          
O        O      0.102933333333     0.777333333333     0.093400000000     0          
O        O      0.321833333333     0.768233333333     0.280300000000     0          
O        O      0.325600000000     0.769600000000     0.343400000000     0          
O        O      0.220266666667     0.988500000000     0.030300000000     0          
O        O      0.222666666667     0.992266666667     0.093400000000     0          
O        O      0.220266666667     0.898433333333     0.530300000000     0          
O        O      0.222666666667     0.897066666667     0.593400000000     0          
O        O      0.176766666667     0.921733333333     0.564400000000     0          
O        O      0.156166666667     0.843800000000     0.562650000000     0          
O        O      0.033766666667     0.966233333333     0.625000000000     0          
O        O      0.089466666667     0.711400000000     0.625000000000     0          
O        O      0.038633333333     0.961400000000     0.990950000000     0          
O        O      0.321833333333     0.886933333333     0.780300000000     0          
O        O      0.325600000000     0.889333333333     0.843400000000     0          
O        O      0.255033333333     0.843433333333     0.814400000000     0          
O        O      0.312366666667     0.822833333333     0.812650000000     0          
O        O      0.067533333333     0.700433333333     0.875000000000     0          
O        O      0.044733333333     0.756133333333     0.875000000000     0          
O        O      0.077233333333     0.705300000000     0.740950000000     0          
O        O      0.101566666667     0.988500000000     0.530300000000     0          
O        O      0.102933333333     0.992266666667     0.593400000000     0          
O        O      0.078266666667     0.921700000000     0.564400000000     0          
O        O      0.156200000000     0.979033333333     0.562650000000     0          
O        O      0.033766666667     0.734200000000     0.625000000000     0          
O        O      0.288600000000     0.711400000000     0.625000000000     0          
O        O      0.038600000000     0.743900000000     0.990950000000     0          
O        O      0.113066666667     0.768233333333     0.780300000000     0          
O        O      0.110666666667     0.769600000000     0.843400000000     0          
O        O      0.156566666667     0.744933333333     0.814400000000     0          
O        O      0.177166666667     0.822866666667     0.812650000000     0          
O        O      0.299566666667     0.700433333333     0.875000000000     0          
O        O      0.243866666667     0.955266666667     0.875000000000     0          
O        O      0.294700000000     0.705266666667     0.740950000000     0          
O        O      0.011500000000     0.779733333333     0.530300000000     0          
O        O      0.007733333333     0.777333333333     0.593400000000     0          
O        O      0.078300000000     0.823233333333     0.564400000000     0          
O        O      0.020966666667     0.843833333333     0.562650000000     0          
O        O      0.265800000000     0.966233333333     0.625000000000     0          
O        O      0.288600000000     0.910533333333     0.625000000000     0          
O        O      0.256100000000     0.961366666667     0.990950000000     0          
O        O      0.231766666667     0.678166666667     0.780300000000     0          
O        O      0.230400000000     0.674400000000     0.843400000000     0          
O        O      0.255066666667     0.744966666667     0.814400000000     0          
O        O      0.177133333333     0.687633333333     0.812650000000     0          
O        O      0.299566666667     0.932466666667     0.875000000000     0          
O        O      0.044733333333     0.955266666667     0.875000000000     0          
O        O      0.294733333333     0.922766666667     0.740950000000     0          
O        O      0.101566666667     0.779733333333     0.719700000000     0          
O        O      0.102933333333     0.777333333333     0.656600000000     0          
O        O      0.078266666667     0.823233333333     0.685600000000     0          
O        O      0.156200000000     0.843833333333     0.687350000000     0          
O        O      0.038600000000     0.961366666667     0.759050000000     0          
O        O      0.321833333333     0.768233333333     0.969700000000     0          
O        O      0.325600000000     0.769600000000     0.906600000000     0          
O        O      0.255033333333     0.744933333333     0.935600000000     0          
O        O      0.312366666667     0.822866666667     0.937350000000     0          
O        O      0.077233333333     0.705266666667     0.509050000000     0          
O        O      0.220266666667     0.988500000000     0.719700000000     0          
O        O      0.222666666667     0.992266666667     0.656600000000     0          
O        O      0.176766666667     0.921700000000     0.685600000000     0          
O        O      0.156166666667     0.979033333333     0.687350000000     0          
O        O      0.038633333333     0.743900000000     0.759050000000     0          
O        O      0.231766666667     0.886933333333     0.969700000000     0          
O        O      0.230400000000     0.889333333333     0.906600000000     0          
O        O      0.255066666667     0.843433333333     0.935600000000     0          
O        O      0.177133333333     0.822833333333     0.937350000000     0          
O        O      0.294733333333     0.705300000000     0.509050000000     0          
O        O      0.011500000000     0.898433333333     0.719700000000     0          
O        O      0.007733333333     0.897066666667     0.656600000000     0          
O        O      0.078300000000     0.921733333333     0.685600000000     0          
O        O      0.020966666667     0.843800000000     0.687350000000     0          
O        O      0.256100000000     0.961400000000     0.759050000000     0          
O        O      0.113066666667     0.678166666667     0.969700000000     0          
O        O      0.110666666667     0.674400000000     0.906600000000     0          
O        O      0.156566666667     0.744966666667     0.935600000000     0          
O        O      0.177166666667     0.687633333333     0.937350000000     0          
O        O      0.294700000000     0.922766666667     0.509050000000     0          
O        O      0.113066666667     0.768233333333     0.969700000000     0          
O        O      0.110666666667     0.769600000000     0.906600000000     0          
O        O      0.011500000000     0.779733333333     0.719700000000     0          
O        O      0.007733333333     0.777333333333     0.656600000000     0          
O        O      0.231766666667     0.678166666667     0.969700000000     0          
O        O      0.230400000000     0.674400000000     0.906600000000     0          
O        O      0.220266666667     0.898433333333     0.719700000000     0          
O        O      0.222666666667     0.897066666667     0.656600000000     0          
O        O      0.321833333333     0.886933333333     0.969700000000     0          
O        O      0.325600000000     0.889333333333     0.906600000000     0          
O        O      0.101566666667     0.988500000000     0.719700000000     0          
O        O      0.102933333333     0.992266666667     0.656600000000     0          
O        O      0.231766666667     0.886933333333     0.780300000000     0          
O        O      0.230400000000     0.889333333333     0.843400000000     0          
O        O      0.011500000000     0.898433333333     0.530300000000     0          
O        O      0.007733333333     0.897066666667     0.593400000000     0          
O        O      0.113066666667     0.678166666667     0.780300000000     0          
O        O      0.110666666667     0.674400000000     0.843400000000     0          
O        O      0.101566666667     0.779733333333     0.530300000000     0          
O        O      0.102933333333     0.777333333333     0.593400000000     0          
O        O      0.321833333333     0.768233333333     0.780300000000     0          
O        O      0.325600000000     0.769600000000     0.843400000000     0          
O        O      0.220266666667     0.988500000000     0.530300000000     0          
O        O      0.222666666667     0.992266666667     0.593400000000     0          
O        O      0.553600000000     0.231766666667     0.030300000000     0          
O        O      0.556000000000     0.230400000000     0.093400000000     0          
O        O      0.510100000000     0.255066666667     0.064400000000     0          
O        O      0.489500000000     0.177133333333     0.062650000000     0          
O        O      0.367100000000     0.299566666667     0.125000000000     0          
O        O      0.422800000000     0.044733333333     0.125000000000     0          
O        O      0.371966666667     0.294733333333     0.490950000000     0          
O        O      0.655166666667     0.220266666667     0.280300000000     0          
O        O      0.658933333333     0.222666666667     0.343400000000     0          
O        O      0.588366666667     0.176766666667     0.314400000000     0          
O        O      0.645700000000     0.156166666667     0.312650000000     0          
O        O      0.400866666667     0.033766666667     0.375000000000     0          
O        O      0.378066666667     0.089466666667     0.375000000000     0          
O        O      0.410566666667     0.038633333333     0.240950000000     0          
O        O      0.434900000000     0.321833333333     0.030300000000     0          
O        O      0.436266666667     0.325600000000     0.093400000000     0          
O        O      0.411600000000     0.255033333333     0.064400000000     0          
O        O      0.489533333333     0.312366666667     0.062650000000     0          
O        O      0.367100000000     0.067533333333     0.125000000000     0          
O        O      0.621933333333     0.044733333333     0.125000000000     0          
O        O      0.371933333333     0.077233333333     0.490950000000     0          
O        O      0.446400000000     0.101566666667     0.280300000000     0          
O        O      0.444000000000     0.102933333333     0.343400000000     0          
O        O      0.489900000000     0.078266666667     0.314400000000     0          
O        O      0.510500000000     0.156200000000     0.312650000000     0          
O        O      0.632900000000     0.033766666667     0.375000000000     0          
O        O      0.577200000000     0.288600000000     0.375000000000     0          
O        O      0.628033333333     0.038600000000     0.240950000000     0          
O        O      0.344833333333     0.113066666667     0.030300000000     0          
O        O      0.341066666667     0.110666666667     0.093400000000     0          
O        O      0.411633333333     0.156566666667     0.064400000000     0          
O        O      0.354300000000     0.177166666667     0.062650000000     0          
O        O      0.599133333333     0.299566666667     0.125000000000     0          
O        O      0.621933333333     0.243866666667     0.125000000000     0          
O        O      0.589433333333     0.294700000000     0.490950000000     0          
O        O      0.565100000000     0.011500000000     0.280300000000     0          
O        O      0.563733333333     0.007733333333     0.343400000000     0          
O        O      0.588400000000     0.078300000000     0.314400000000     0          
O        O      0.510466666667     0.020966666667     0.312650000000     0          
O        O      0.632900000000     0.265800000000     0.375000000000     0          
O        O      0.378066666667     0.288600000000     0.375000000000     0          
O        O      0.628066666667     0.256100000000     0.240950000000     0          
O        O      0.434900000000     0.113066666667     0.219700000000     0          
O        O      0.436266666667     0.110666666667     0.156600000000     0          
O        O      0.411600000000     0.156566666667     0.185600000000     0          
O        O      0.489533333333     0.177166666667     0.187350000000     0          
O        O      0.371933333333     0.294700000000     0.259050000000     0          
O        O      0.655166666667     0.101566666667     0.469700000000     0          
O        O      0.658933333333     0.102933333333     0.406600000000     0          
O        O      0.588366666667     0.078266666667     0.435600000000     0          
O        O      0.645700000000     0.156200000000     0.437350000000     0          
O        O      0.410566666667     0.038600000000     0.009050000000     0          
O        O      0.553600000000     0.321833333333     0.219700000000     0          
O        O      0.556000000000     0.325600000000     0.156600000000     0          
O        O      0.510100000000     0.255033333333     0.185600000000     0          
O        O      0.489500000000     0.312366666667     0.187350000000     0          
O        O      0.371966666667     0.077233333333     0.259050000000     0          
O        O      0.565100000000     0.220266666667     0.469700000000     0          
O        O      0.563733333333     0.222666666667     0.406600000000     0          
O        O      0.588400000000     0.176766666667     0.435600000000     0          
O        O      0.510466666667     0.156166666667     0.437350000000     0          
O        O      0.628066666667     0.038633333333     0.009050000000     0          
O        O      0.344833333333     0.231766666667     0.219700000000     0          
O        O      0.341066666667     0.230400000000     0.156600000000     0          
O        O      0.411633333333     0.255066666667     0.185600000000     0          
O        O      0.354300000000     0.177133333333     0.187350000000     0          
O        O      0.589433333333     0.294733333333     0.259050000000     0          
O        O      0.446400000000     0.011500000000     0.469700000000     0          
O        O      0.444000000000     0.007733333333     0.406600000000     0          
O        O      0.489900000000     0.078300000000     0.435600000000     0          
O        O      0.510500000000     0.020966666667     0.437350000000     0          
O        O      0.628033333333     0.256100000000     0.009050000000     0          
O        O      0.446400000000     0.101566666667     0.469700000000     0          
O        O      0.444000000000     0.102933333333     0.406600000000     0          
O        O      0.344833333333     0.113066666667     0.219700000000     0          
O        O      0.341066666667     0.110666666667     0.156600000000     0          
O        O      0.565100000000     0.011500000000     0.469700000000     0          
O        O      0.563733333333     0.007733333333     0.406600000000     0          
O        O      0.553600000000     0.231766666667     0.219700000000     0          
O        O      0.556000000000     0.230400000000     0.156600000000     0          
O        O      0.655166666667     0.220266666667     0.469700000000     0          
O        O      0.658933333333     0.222666666667     0.406600000000     0          
O        O      0.434900000000     0.321833333333     0.219700000000     0          
O        O      0.436266666667     0.325600000000     0.156600000000     0          
O        O      0.565100000000     0.220266666667     0.280300000000     0          
O        O      0.563733333333     0.222666666667     0.343400000000     0          
O        O      0.344833333333     0.231766666667     0.030300000000     0          
O        O      0.341066666667     0.230400000000     0.093400000000     0          
O        O      0.446400000000     0.011500000000     0.280300000000     0          
O        O      0.444000000000     0.007733333333     0.343400000000     0          
O        O      0.434900000000     0.113066666667     0.030300000000     0          
O        O      0.436266666667     0.110666666667     0.093400000000     0          
O        O      0.655166666667     0.101566666667     0.280300000000     0          
O        O      0.658933333333     0.102933333333     0.343400000000     0          
O        O      0.553600000000     0.321833333333     0.030300000000     0          
O        O      0.556000000000     0.325600000000     0.093400000000     0          
O        O      0.553600000000     0.231766666667     0.530300000000     0          
O        O      0.556000000000     0.230400000000     0.593400000000     0          
O        O      0.510100000000     0.255066666667     0.564400000000     0          
O        O      0.489500000000     0.177133333333     0.562650000000     0          
O        O      0.367100000000     0.299566666667     0.625000000000     0          
O        O      0.422800000000     0.044733333333     0.625000000000     0          
O        O      0.371966666667     0.294733333333     0.990950000000     0          
O        O      0.655166666667     0.220266666667     0.780300000000     0          
O        O      0.658933333333     0.222666666667     0.843400000000     0          
O        O      0.588366666667     0.176766666667     0.814400000000     0          
O        O      0.645700000000     0.156166666667     0.812650000000     0          
O        O      0.400866666667     0.033766666667     0.875000000000     0          
O        O      0.378066666667     0.089466666667     0.875000000000     0          
O        O      0.410566666667     0.038633333333     0.740950000000     0          
O        O      0.434900000000     0.321833333333     0.530300000000     0          
O        O      0.436266666667     0.325600000000     0.593400000000     0          
O        O      0.411600000000     0.255033333333     0.564400000000     0          
O        O      0.489533333333     0.312366666667     0.562650000000     0          
O        O      0.367100000000     0.067533333333     0.625000000000     0          
O        O      0.621933333333     0.044733333333     0.625000000000     0          
O        O      0.371933333333     0.077233333333     0.990950000000     0          
O        O      0.446400000000     0.101566666667     0.780300000000     0          
O        O      0.444000000000     0.102933333333     0.843400000000     0          
O        O      0.489900000000     0.078266666667     0.814400000000     0          
O        O      0.510500000000     0.156200000000     0.812650000000     0          
O        O      0.632900000000     0.033766666667     0.875000000000     0          
O        O      0.577200000000     0.288600000000     0.875000000000     0          
O        O      0.628033333333     0.038600000000     0.740950000000     0          
O        O      0.344833333333     0.113066666667     0.530300000000     0          
O        O      0.341066666667     0.110666666667     0.593400000000     0          
O        O      0.411633333333     0.156566666667     0.564400000000     0          
O        O      0.354300000000     0.177166666667     0.562650000000     0          
O        O      0.599133333333     0.299566666667     0.625000000000     0          
O        O      0.621933333333     0.243866666667     0.625000000000     0          
O        O      0.589433333333     0.294700000000     0.990950000000     0          
O        O      0.565100000000     0.011500000000     0.780300000000     0          
O        O      0.563733333333     0.007733333333     0.843400000000     0          
O        O      0.588400000000     0.078300000000     0.814400000000     0          
O        O      0.510466666667     0.020966666667     0.812650000000     0          
O        O      0.632900000000     0.265800000000     0.875000000000     0          
O        O      0.378066666667     0.288600000000     0.875000000000     0          
O        O      0.628066666667     0.256100000000     0.740950000000     0          
O        O      0.434900000000     0.113066666667     0.719700000000     0          
O        O      0.436266666667     0.110666666667     0.656600000000     0          
O        O      0.411600000000     0.156566666667     0.685600000000     0          
O        O      0.489533333333     0.177166666667     0.687350000000     0          
O        O      0.371933333333     0.294700000000     0.759050000000     0          
O        O      0.655166666667     0.101566666667     0.969700000000     0          
O        O      0.658933333333     0.102933333333     0.906600000000     0          
O        O      0.588366666667     0.078266666667     0.935600000000     0          
O        O      0.645700000000     0.156200000000     0.937350000000     0          
O        O      0.410566666667     0.038600000000     0.509050000000     0          
O        O      0.553600000000     0.321833333333     0.719700000000     0          
O        O      0.556000000000     0.325600000000     0.656600000000     0          
O        O      0.510100000000     0.255033333333     0.685600000000     0          
O        O      0.489500000000     0.312366666667     0.687350000000     0          
O        O      0.371966666667     0.077233333333     0.759050000000     0          
O        O      0.565100000000     0.220266666667     0.969700000000     0          
O        O      0.563733333333     0.222666666667     0.906600000000     0          
O        O      0.588400000000     0.176766666667     0.935600000000     0          
O        O      0.510466666667     0.156166666667     0.937350000000     0          
O        O      0.628066666667     0.038633333333     0.509050000000     0          
O        O      0.344833333333     0.231766666667     0.719700000000     0          
O        O      0.341066666667     0.230400000000     0.656600000000     0          
O        O      0.411633333333     0.255066666667     0.685600000000     0          
O        O      0.354300000000     0.177133333333     0.687350000000     0          
O        O      0.589433333333     0.294733333333     0.759050000000     0          
O        O      0.446400000000     0.011500000000     0.969700000000     0          
O        O      0.444000000000     0.007733333333     0.906600000000     0          
O        O      0.489900000000     0.078300000000     0.935600000000     0          
O        O      0.510500000000     0.020966666667     0.937350000000     0          
O        O      0.628033333333     0.256100000000     0.509050000000     0          
O        O      0.446400000000     0.101566666667     0.969700000000     0          
O        O      0.444000000000     0.102933333333     0.906600000000     0          
O        O      0.344833333333     0.113066666667     0.719700000000     0          
O        O      0.341066666667     0.110666666667     0.656600000000     0          
O        O      0.565100000000     0.011500000000     0.969700000000     0          
O        O      0.563733333333     0.007733333333     0.906600000000     0          
O        O      0.553600000000     0.231766666667     0.719700000000     0          
O        O      0.556000000000     0.230400000000     0.656600000000     0          
O        O      0.655166666667     0.220266666667     0.969700000000     0          
O        O      0.658933333333     0.222666666667     0.906600000000     0          
O        O      0.434900000000     0.321833333333     0.719700000000     0          
O        O      0.436266666667     0.325600000000     0.656600000000     0          
O        O      0.565100000000     0.220266666667     0.780300000000     0          
O        O      0.563733333333     0.222666666667     0.843400000000     0          
O        O      0.344833333333     0.231766666667     0.530300000000     0          
O        O      0.341066666667     0.230400000000     0.593400000000     0          
O        O      0.446400000000     0.011500000000     0.780300000000     0          
O        O      0.444000000000     0.007733333333     0.843400000000     0          
O        O      0.434900000000     0.113066666667     0.530300000000     0          
O        O      0.436266666667     0.110666666667     0.593400000000     0          
O        O      0.655166666667     0.101566666667     0.780300000000     0          
O        O      0.658933333333     0.102933333333     0.843400000000     0          
O        O      0.553600000000     0.321833333333     0.530300000000     0          
O        O      0.556000000000     0.325600000000     0.593400000000     0          
O        O      0.553600000000     0.565100000000     0.030300000000     0          
O        O      0.556000000000     0.563733333333     0.093400000000     0          
O        O      0.510100000000     0.588400000000     0.064400000000     0          
O        O      0.489500000000     0.510466666667     0.062650000000     0          
O        O      0.367100000000     0.632900000000     0.125000000000     0          
O        O      0.422800000000     0.378066666667     0.125000000000     0          
O        O      0.371966666667     0.628066666667     0.490950000000     0          
O        O      0.655166666667     0.553600000000     0.280300000000     0          
O        O      0.658933333333     0.556000000000     0.343400000000     0          
O        O      0.588366666667     0.510100000000     0.314400000000     0          
O        O      0.645700000000     0.489500000000     0.312650000000     0          
O        O      0.400866666667     0.367100000000     0.375000000000     0          
O        O      0.378066666667     0.422800000000     0.375000000000     0          
O        O      0.410566666667     0.371966666667     0.240950000000     0          
O        O      0.434900000000     0.655166666667     0.030300000000     0          
O        O      0.436266666667     0.658933333333     0.093400000000     0          
O        O      0.411600000000     0.588366666667     0.064400000000     0          
O        O      0.489533333333     0.645700000000     0.062650000000     0          
O        O      0.367100000000     0.400866666667     0.125000000000     0          
O        O      0.621933333333     0.378066666667     0.125000000000     0          
O        O      0.371933333333     0.410566666667     0.490950000000     0          
O        O      0.446400000000     0.434900000000     0.280300000000     0          
O        O      0.444000000000     0.436266666667     0.343400000000     0          
O        O      0.489900000000     0.411600000000     0.314400000000     0          
O        O      0.510500000000     0.489533333333     0.312650000000     0          
O        O      0.632900000000     0.367100000000     0.375000000000     0          
O        O      0.577200000000     0.621933333333     0.375000000000     0          
O        O      0.628033333333     0.371933333333     0.240950000000     0          
O        O      0.344833333333     0.446400000000     0.030300000000     0          
O        O      0.341066666667     0.444000000000     0.093400000000     0          
O        O      0.411633333333     0.489900000000     0.064400000000     0          
O        O      0.354300000000     0.510500000000     0.062650000000     0          
O        O      0.599133333333     0.632900000000     0.125000000000     0          
O        O      0.621933333333     0.577200000000     0.125000000000     0          
O        O      0.589433333333     0.628033333333     0.490950000000     0          
O        O      0.565100000000     0.344833333333     0.280300000000     0          
O        O      0.563733333333     0.341066666667     0.343400000000     0          
O        O      0.588400000000     0.411633333333     0.314400000000     0          
O        O      0.510466666667     0.354300000000     0.312650000000     0          
O        O      0.632900000000     0.599133333333     0.375000000000     0          
O        O      0.378066666667     0.621933333333     0.375000000000     0          
O        O      0.628066666667     0.589433333333     0.240950000000     0          
O        O      0.434900000000     0.446400000000     0.219700000000     0          
O        O      0.436266666667     0.444000000000     0.156600000000     0          
O        O      0.411600000000     0.489900000000     0.185600000000     0          
O        O      0.489533333333     0.510500000000     0.187350000000     0          
O        O      0.371933333333     0.628033333333     0.259050000000     0          
O        O      0.655166666667     0.434900000000     0.469700000000     0          
O        O      0.658933333333     0.436266666667     0.406600000000     0          
O        O      0.588366666667     0.411600000000     0.435600000000     0          
O        O      0.645700000000     0.489533333333     0.437350000000     0          
O        O      0.410566666667     0.371933333333     0.009050000000     0          
O        O      0.553600000000     0.655166666667     0.219700000000     0          
O        O      0.556000000000     0.658933333333     0.156600000000     0          
O        O      0.510100000000     0.588366666667     0.185600000000     0          
O        O      0.489500000000     0.645700000000     0.187350000000     0          
O        O      0.371966666667     0.410566666667     0.259050000000     0          
O        O      0.565100000000     0.553600000000     0.469700000000     0          
O        O      0.563733333333     0.556000000000     0.406600000000     0          
O        O      0.588400000000     0.510100000000     0.435600000000     0          
O        O      0.510466666667     0.489500000000     0.437350000000     0          
O        O      0.628066666667     0.371966666667     0.009050000000     0          
O        O      0.344833333333     0.565100000000     0.219700000000     0          
O        O      0.341066666667     0.563733333333     0.156600000000     0          
O        O      0.411633333333     0.588400000000     0.185600000000     0          
O        O      0.354300000000     0.510466666667     0.187350000000     0          
O        O      0.589433333333     0.628066666667     0.259050000000     0          
O        O      0.446400000000     0.344833333333     0.469700000000     0          
O        O      0.444000000000     0.341066666667     0.406600000000     0          
O        O      0.489900000000     0.411633333333     0.435600000000     0          
O        O      0.510500000000     0.354300000000     0.437350000000     0          
O        O      0.628033333333     0.589433333333     0.009050000000     0          
O        O      0.446400000000     0.434900000000     0.469700000000     0          
O        O      0.444000000000     0.436266666667     0.406600000000     0          
O        O      0.344833333333     0.446400000000     0.219700000000     0          
O        O      0.341066666667     0.444000000000     0.156600000000     0          
O        O      0.565100000000     0.344833333333     0.469700000000     0          
O        O      0.563733333333     0.341066666667     0.406600000000     0          
O        O      0.553600000000     0.565100000000     0.219700000000     0          
O        O      0.556000000000     0.563733333333     0.156600000000     0          
O        O      0.655166666667     0.553600000000     0.469700000000     0          
O        O      0.658933333333     0.556000000000     0.406600000000     0          
O        O      0.434900000000     0.655166666667     0.219700000000     0          
O        O      0.436266666667     0.658933333333     0.156600000000     0          
O        O      0.565100000000     0.553600000000     0.280300000000     0          
O        O      0.563733333333     0.556000000000     0.343400000000     0          
O        O      0.344833333333     0.565100000000     0.030300000000     0          
O        O      0.341066666667     0.563733333333     0.093400000000     0          
O        O      0.446400000000     0.344833333333     0.280300000000     0          
O        O      0.444000000000     0.341066666667     0.343400000000     0          
O        O      0.434900000000     0.446400000000     0.030300000000     0          
O        O      0.436266666667     0.444000000000     0.093400000000     0          
O        O      0.655166666667     0.434900000000     0.280300000000     0          
O        O      0.658933333333     0.436266666667     0.343400000000     0          
O        O      0.553600000000     0.655166666667     0.030300000000     0          
O        O      0.556000000000     0.658933333333     0.093400000000     0          
O        O      0.553600000000     0.565100000000     0.530300000000     0          
O        O      0.556000000000     0.563733333333     0.593400000000     0          
O        O      0.510100000000     0.588400000000     0.564400000000     0          
O        O      0.489500000000     0.510466666667     0.562650000000     0          
O        O      0.367100000000     0.632900000000     0.625000000000     0          
O        O      0.422800000000     0.378066666667     0.625000000000     0          
O        O      0.371966666667     0.628066666667     0.990950000000     0          
O        O      0.655166666667     0.553600000000     0.780300000000     0          
O        O      0.658933333333     0.556000000000     0.843400000000     0          
O        O      0.588366666667     0.510100000000     0.814400000000     0          
O        O      0.645700000000     0.489500000000     0.812650000000     0          
O        O      0.400866666667     0.367100000000     0.875000000000     0          
O        O      0.378066666667     0.422800000000     0.875000000000     0          
O        O      0.410566666667     0.371966666667     0.740950000000     0          
O        O      0.434900000000     0.655166666667     0.530300000000     0          
O        O      0.436266666667     0.658933333333     0.593400000000     0          
O        O      0.411600000000     0.588366666667     0.564400000000     0          
O        O      0.489533333333     0.645700000000     0.562650000000     0          
O        O      0.367100000000     0.400866666667     0.625000000000     0          
O        O      0.621933333333     0.378066666667     0.625000000000     0          
O        O      0.371933333333     0.410566666667     0.990950000000     0          
O        O      0.446400000000     0.434900000000     0.780300000000     0          
O        O      0.444000000000     0.436266666667     0.843400000000     0          
O        O      0.489900000000     0.411600000000     0.814400000000     0          
O        O      0.510500000000     0.489533333333     0.812650000000     0          
O        O      0.632900000000     0.367100000000     0.875000000000     0          
O        O      0.577200000000     0.621933333333     0.875000000000     0          
O        O      0.628033333333     0.371933333333     0.740950000000     0          
O        O      0.344833333333     0.446400000000     0.530300000000     0          
O        O      0.341066666667     0.444000000000     0.593400000000     0          
O        O      0.411633333333     0.489900000000     0.564400000000     0          
O        O      0.354300000000     0.510500000000     0.562650000000     0          
O        O      0.599133333333     0.632900000000     0.625000000000     0          
O        O      0.621933333333     0.577200000000     0.625000000000     0          
O        O      0.589433333333     0.628033333333     0.990950000000     0          
O        O      0.565100000000     0.344833333333     0.780300000000     0          
O        O      0.563733333333     0.341066666667     0.843400000000     0          
O        O      0.588400000000     0.411633333333     0.814400000000     0          
O        O      0.510466666667     0.354300000000     0.812650000000     0          
O        O      0.632900000000     0.599133333333     0.875000000000     0          
O        O      0.378066666667     0.621933333333     0.875000000000     0          
O        O      0.628066666667     0.589433333333     0.740950000000     0          
O        O      0.434900000000     0.446400000000     0.719700000000     0          
O        O      0.436266666667     0.444000000000     0.656600000000     0          
O        O      0.411600000000     0.489900000000     0.685600000000     0          
O        O      0.489533333333     0.510500000000     0.687350000000     0          
O        O      0.371933333333     0.628033333333     0.759050000000     0          
O        O      0.655166666667     0.434900000000     0.969700000000     0          
O        O      0.658933333333     0.436266666667     0.906600000000     0          
O        O      0.588366666667     0.411600000000     0.935600000000     0          
O        O      0.645700000000     0.489533333333     0.937350000000     0          
O        O      0.410566666667     0.371933333333     0.509050000000     0          
O        O      0.553600000000     0.655166666667     0.719700000000     0          
O        O      0.556000000000     0.658933333333     0.656600000000     0          
O        O      0.510100000000     0.588366666667     0.685600000000     0          
O        O      0.489500000000     0.645700000000     0.687350000000     0          
O        O      0.371966666667     0.410566666667     0.759050000000     0          
O        O      0.565100000000     0.553600000000     0.969700000000     0          
O        O      0.563733333333     0.556000000000     0.906600000000     0          
O        O      0.588400000000     0.510100000000     0.935600000000     0          
O        O      0.510466666667     0.489500000000     0.937350000000     0          
O        O      0.628066666667     0.371966666667     0.509050000000     0          
O        O      0.344833333333     0.565100000000     0.719700000000     0          
O        O      0.341066666667     0.563733333333     0.656600000000     0          
O        O      0.411633333333     0.588400000000     0.685600000000     0          
O        O      0.354300000000     0.510466666667     0.687350000000     0          
O        O      0.589433333333     0.628066666667     0.759050000000     0          
O        O      0.446400000000     0.344833333333     0.969700000000     0          
O        O      0.444000000000     0.341066666667     0.906600000000     0          
O        O      0.489900000000     0.411633333333     0.935600000000     0          
O        O      0.510500000000     0.354300000000     0.937350000000     0          
O        O      0.628033333333     0.589433333333     0.509050000000     0          
O        O      0.446400000000     0.434900000000     0.969700000000     0          
O        O      0.444000000000     0.436266666667     0.906600000000     0          
O        O      0.344833333333     0.446400000000     0.719700000000     0          
O        O      0.341066666667     0.444000000000     0.656600000000     0          
O        O      0.565100000000     0.344833333333     0.969700000000     0          
O        O      0.563733333333     0.341066666667     0.906600000000     0          
O        O      0.553600000000     0.565100000000     0.719700000000     0          
O        O      0.556000000000     0.563733333333     0.656600000000     0          
O        O      0.655166666667     0.553600000000     0.969700000000     0          
O        O      0.658933333333     0.556000000000     0.906600000000     0          
O        O      0.434900000000     0.655166666667     0.719700000000     0          
O        O      0.436266666667     0.658933333333     0.656600000000     0          
O        O      0.565100000000     0.553600000000     0.780300000000     0          
O        O      0.563733333333     0.556000000000     0.843400000000     0          
O        O      0.344833333333     0.565100000000     0.530300000000     0          
O        O      0.341066666667     0.563733333333     0.593400000000     0          
O        O      0.446400000000     0.344833333333     0.780300000000     0          
O        O      0.444000000000     0.341066666667     0.843400000000     0          
O        O      0.434900000000     0.446400000000     0.530300000000     0          
O        O      0.436266666667     0.444000000000     0.593400000000     0          
O        O      0.655166666667     0.434900000000     0.780300000000     0          
O        O      0.658933333333     0.436266666667     0.843400000000     0          
O        O      0.553600000000     0.655166666667     0.530300000000     0          
O        O      0.556000000000     0.658933333333     0.593400000000     0          
O        O      0.553600000000     0.898433333333     0.030300000000     0          
O        O      0.556000000000     0.897066666667     0.093400000000     0          
O        O      0.510100000000     0.921733333333     0.064400000000     0          
O        O      0.489500000000     0.843800000000     0.062650000000     0          
O        O      0.367100000000     0.966233333333     0.125000000000     0          
O        O      0.422800000000     0.711400000000     0.125000000000     0          
O        O      0.371966666667     0.961400000000     0.490950000000     0          
O        O      0.655166666667     0.886933333333     0.280300000000     0          
O        O      0.658933333333     0.889333333333     0.343400000000     0          
O        O      0.588366666667     0.843433333333     0.314400000000     0          
O        O      0.645700000000     0.822833333333     0.312650000000     0          
O        O      0.400866666667     0.700433333333     0.375000000000     0          
O        O      0.378066666667     0.756133333333     0.375000000000     0          
O        O      0.410566666667     0.705300000000     0.240950000000     0          
O        O      0.434900000000     0.988500000000     0.030300000000     0          
O        O      0.436266666667     0.992266666667     0.093400000000     0          
O        O      0.411600000000     0.921700000000     0.064400000000     0          
O        O      0.489533333333     0.979033333333     0.062650000000     0          
O        O      0.367100000000     0.734200000000     0.125000000000     0          
O        O      0.621933333333     0.711400000000     0.125000000000     0          
O        O      0.371933333333     0.743900000000     0.490950000000     0          
O        O      0.446400000000     0.768233333333     0.280300000000     0          
O        O      0.444000000000     0.769600000000     0.343400000000     0          
O        O      0.489900000000     0.744933333333     0.314400000000     0          
O        O      0.510500000000     0.822866666667     0.312650000000     0          
O        O      0.632900000000     0.700433333333     0.375000000000     0          
O        O      0.577200000000     0.955266666667     0.375000000000     0          
O        O      0.628033333333     0.705266666667     0.240950000000     0          
O        O      0.344833333333     0.779733333333     0.030300000000     0          
O        O      0.341066666667     0.777333333333     0.093400000000     0          
O        O      0.411633333333     0.823233333333     0.064400000000     0          
O        O      0.354300000000     0.843833333333     0.062650000000     0          
O        O      0.599133333333     0.966233333333     0.125000000000     0          
O        O      0.621933333333     0.910533333333     0.125000000000     0          
O        O      0.589433333333     0.961366666667     0.490950000000     0          
O        O      0.565100000000     0.678166666667     0.280300000000     0          
O        O      0.563733333333     0.674400000000     0.343400000000     0          
O        O      0.588400000000     0.744966666667     0.314400000000     0          
O        O      0.510466666667     0.687633333333     0.312650000000     0          
O        O      0.632900000000     0.932466666667     0.375000000000     0          
O        O      0.378066666667     0.955266666667     0.375000000000     0          
O        O      0.628066666667     0.922766666667     0.240950000000     0          
O        O      0.434900000000     0.779733333333     0.219700000000     0          
O        O      0.436266666667     0.777333333333     0.156600000000     0          
O        O      0.411600000000     0.823233333333     0.185600000000     0          
O        O      0.489533333333     0.843833333333     0.187350000000     0          
O        O      0.371933333333     0.961366666667     0.259050000000     0          
O        O      0.655166666667     0.768233333333     0.469700000000     0          
O        O      0.658933333333     0.769600000000     0.406600000000     0          
O        O      0.588366666667     0.744933333333     0.435600000000     0          
O        O      0.645700000000     0.822866666667     0.437350000000     0          
O        O      0.410566666667     0.705266666667     0.009050000000     0          
O        O      0.553600000000     0.988500000000     0.219700000000     0          
O        O      0.556000000000     0.992266666667     0.156600000000     0          
O        O      0.510100000000     0.921700000000     0.185600000000     0          
O        O      0.489500000000     0.979033333333     0.187350000000     0          
O        O      0.371966666667     0.743900000000     0.259050000000     0          
O        O      0.565100000000     0.886933333333     0.469700000000     0          
O        O      0.563733333333     0.889333333333     0.406600000000     0          
O        O      0.588400000000     0.843433333333     0.435600000000     0          
O        O      0.510466666667     0.822833333333     0.437350000000     0          
O        O      0.628066666667     0.705300000000     0.009050000000     0          
O        O      0.344833333333     0.898433333333     0.219700000000     0          
O        O      0.341066666667     0.897066666667     0.156600000000     0          
O        O      0.411633333333     0.921733333333     0.185600000000     0          
O        O      0.354300000000     0.843800000000     0.187350000000     0          
O        O      0.589433333333     0.961400000000     0.259050000000     0          
O        O      0.446400000000     0.678166666667     0.469700000000     0          
O        O      0.444000000000     0.674400000000     0.406600000000     0          
O        O      0.489900000000     0.744966666667     0.435600000000     0          
O        O      0.510500000000     0.687633333333     0.437350000000     0          
O        O      0.628033333333     0.922766666667     0.009050000000     0          
O        O      0.446400000000     0.768233333333     0.469700000000     0          
O        O      0.444000000000     0.769600000000     0.406600000000     0          
O        O      0.344833333333     0.779733333333     0.219700000000     0          
O        O      0.341066666667     0.777333333333     0.156600000000     0          
O        O      0.565100000000     0.678166666667     0.469700000000     0          
O        O      0.563733333333     0.674400000000     0.406600000000     0          
O        O      0.553600000000     0.898433333333     0.219700000000     0          
O        O      0.556000000000     0.897066666667     0.156600000000     0          
O        O      0.655166666667     0.886933333333     0.469700000000     0          
O        O      0.658933333333     0.889333333333     0.406600000000     0          
O        O      0.434900000000     0.988500000000     0.219700000000     0          
O        O      0.436266666667     0.992266666667     0.156600000000     0          
O        O      0.565100000000     0.886933333333     0.280300000000     0          
O        O      0.563733333333     0.889333333333     0.343400000000     0          
O        O      0.344833333333     0.898433333333     0.030300000000     0          
O        O      0.341066666667     0.897066666667     0.093400000000     0          
O        O      0.446400000000     0.678166666667     0.280300000000     0          
O        O      0.444000000000     0.674400000000     0.343400000000     0          
O        O      0.434900000000     0.779733333333     0.030300000000     0          
O        O      0.436266666667     0.777333333333     0.093400000000     0          
O        O      0.655166666667     0.768233333333     0.280300000000     0          
O        O      0.658933333333     0.769600000000     0.343400000000     0          
O        O      0.553600000000     0.988500000000     0.030300000000     0          
O        O      0.556000000000     0.992266666667     0.093400000000     0          
O        O      0.553600000000     0.898433333333     0.530300000000     0          
O        O      0.556000000000     0.897066666667     0.593400000000     0          
O        O      0.510100000000     0.921733333333     0.564400000000     0          
O        O      0.489500000000     0.843800000000     0.562650000000     0          
O        O      0.367100000000     0.966233333333     0.625000000000     0          
O        O      0.422800000000     0.711400000000     0.625000000000     0          
O        O      0.371966666667     0.961400000000     0.990950000000     0          
O        O      0.655166666667     0.886933333333     0.780300000000     0          
O        O      0.658933333333     0.889333333333     0.843400000000     0          
O        O      0.588366666667     0.843433333333     0.814400000000     0          
O        O      0.645700000000     0.822833333333     0.812650000000     0          
O        O      0.400866666667     0.700433333333     0.875000000000     0          
O        O      0.378066666667     0.756133333333     0.875000000000     0          
O        O      0.410566666667     0.705300000000     0.740950000000     0          
O        O      0.434900000000     0.988500000000     0.530300000000     0          
O        O      0.436266666667     0.992266666667     0.593400000000     0          
O        O      0.411600000000     0.921700000000     0.564400000000     0          
O        O      0.489533333333     0.979033333333     0.562650000000     0          
O        O      0.367100000000     0.734200000000     0.625000000000     0          
O        O      0.621933333333     0.711400000000     0.625000000000     0          
O        O      0.371933333333     0.743900000000     0.990950000000     0          
O        O      0.446400000000     0.768233333333     0.780300000000     0          
O        O      0.444000000000     0.769600000000     0.843400000000     0          
O        O      0.489900000000     0.744933333333     0.814400000000     0          
O        O      0.510500000000     0.822866666667     0.812650000000     0          
O        O      0.632900000000     0.700433333333     0.875000000000     0          
O        O      0.577200000000     0.955266666667     0.875000000000     0          
O        O      0.628033333333     0.705266666667     0.740950000000     0          
O        O      0.344833333333     0.779733333333     0.530300000000     0          
O        O      0.341066666667     0.777333333333     0.593400000000     0          
O        O      0.411633333333     0.823233333333     0.564400000000     0          
O        O      0.354300000000     0.843833333333     0.562650000000     0          
O        O      0.599133333333     0.966233333333     0.625000000000     0          
O        O      0.621933333333     0.910533333333     0.625000000000     0          
O        O      0.589433333333     0.961366666667     0.990950000000     0          
O        O      0.565100000000     0.678166666667     0.780300000000     0          
O        O      0.563733333333     0.674400000000     0.843400000000     0          
O        O      0.588400000000     0.744966666667     0.814400000000     0          
O        O      0.510466666667     0.687633333333     0.812650000000     0          
O        O      0.632900000000     0.932466666667     0.875000000000     0          
O        O      0.378066666667     0.955266666667     0.875000000000     0          
O        O      0.628066666667     0.922766666667     0.740950000000     0          
O        O      0.434900000000     0.779733333333     0.719700000000     0          
O        O      0.436266666667     0.777333333333     0.656600000000     0          
O        O      0.411600000000     0.823233333333     0.685600000000     0          
O        O      0.489533333333     0.843833333333     0.687350000000     0          
O        O      0.371933333333     0.961366666667     0.759050000000     0          
O        O      0.655166666667     0.768233333333     0.969700000000     0          
O        O      0.658933333333     0.769600000000     0.906600000000     0          
O        O      0.588366666667     0.744933333333     0.935600000000     0          
O        O      0.645700000000     0.822866666667     0.937350000000     0          
O        O      0.410566666667     0.705266666667     0.509050000000     0          
O        O      0.553600000000     0.988500000000     0.719700000000     0          
O        O      0.556000000000     0.992266666667     0.656600000000     0          
O        O      0.510100000000     0.921700000000     0.685600000000     0          
O        O      0.489500000000     0.979033333333     0.687350000000     0          
O        O      0.371966666667     0.743900000000     0.759050000000     0          
O        O      0.565100000000     0.886933333333     0.969700000000     0          
O        O      0.563733333333     0.889333333333     0.906600000000     0          
O        O      0.588400000000     0.843433333333     0.935600000000     0          
O        O      0.510466666667     0.822833333333     0.937350000000     0          
O        O      0.628066666667     0.705300000000     0.509050000000     0          
O        O      0.344833333333     0.898433333333     0.719700000000     0          
O        O      0.341066666667     0.897066666667     0.656600000000     0          
O        O      0.411633333333     0.921733333333     0.685600000000     0          
O        O      0.354300000000     0.843800000000     0.687350000000     0          
O        O      0.589433333333     0.961400000000     0.759050000000     0          
O        O      0.446400000000     0.678166666667     0.969700000000     0          
O        O      0.444000000000     0.674400000000     0.906600000000     0          
O        O      0.489900000000     0.744966666667     0.935600000000     0          
O        O      0.510500000000     0.687633333333     0.937350000000     0          
O        O      0.628033333333     0.922766666667     0.509050000000     0          
O        O      0.446400000000     0.768233333333     0.969700000000     0          
O        O      0.444000000000     0.769600000000     0.906600000000     0          
O        O      0.344833333333     0.779733333333     0.719700000000     0          
O        O      0.341066666667     0.777333333333     0.656600000000     0          
O        O      0.565100000000     0.678166666667     0.969700000000     0          
O        O      0.563733333333     0.674400000000     0.906600000000     0          
O        O      0.553600000000     0.898433333333     0.719700000000     0          
O        O      0.556000000000     0.897066666667     0.656600000000     0          
O        O      0.655166666667     0.886933333333     0.969700000000     0          
O        O      0.658933333333     0.889333333333     0.906600000000     0          
O        O      0.434900000000     0.988500000000     0.719700000000     0          
O        O      0.436266666667     0.992266666667     0.656600000000     0          
O        O      0.565100000000     0.886933333333     0.780300000000     0          
O        O      0.563733333333     0.889333333333     0.843400000000     0          
O        O      0.344833333333     0.898433333333     0.530300000000     0          
O        O      0.341066666667     0.897066666667     0.593400000000     0          
O        O      0.446400000000     0.678166666667     0.780300000000     0          
O        O      0.444000000000     0.674400000000     0.843400000000     0          
O        O      0.434900000000     0.779733333333     0.530300000000     0          
O        O      0.436266666667     0.777333333333     0.593400000000     0          
O        O      0.655166666667     0.768233333333     0.780300000000     0          
O        O      0.658933333333     0.769600000000     0.843400000000     0          
O        O      0.553600000000     0.988500000000     0.530300000000     0          
O        O      0.556000000000     0.992266666667     0.593400000000     0          
O        O      0.886933333333     0.231766666667     0.030300000000     0          
O        O      0.889333333333     0.230400000000     0.093400000000     0          
O        O      0.843433333333     0.255066666667     0.064400000000     0          
O        O      0.822833333333     0.177133333333     0.062650000000     0          
O        O      0.700433333333     0.299566666667     0.125000000000     0          
O        O      0.756133333333     0.044733333333     0.125000000000     0          
O        O      0.705300000000     0.294733333333     0.490950000000     0          
O        O      0.988500000000     0.220266666667     0.280300000000     0          
O        O      0.992266666667     0.222666666667     0.343400000000     0          
O        O      0.921700000000     0.176766666667     0.314400000000     0          
O        O      0.979033333333     0.156166666667     0.312650000000     0          
O        O      0.734200000000     0.033766666667     0.375000000000     0          
O        O      0.711400000000     0.089466666667     0.375000000000     0          
O        O      0.743900000000     0.038633333333     0.240950000000     0          
O        O      0.768233333333     0.321833333333     0.030300000000     0          
O        O      0.769600000000     0.325600000000     0.093400000000     0          
O        O      0.744933333333     0.255033333333     0.064400000000     0          
O        O      0.822866666667     0.312366666667     0.062650000000     0          
O        O      0.700433333333     0.067533333333     0.125000000000     0          
O        O      0.955266666667     0.044733333333     0.125000000000     0          
O        O      0.705266666667     0.077233333333     0.490950000000     0          
O        O      0.779733333333     0.101566666667     0.280300000000     0          
O        O      0.777333333333     0.102933333333     0.343400000000     0          
O        O      0.823233333333     0.078266666667     0.314400000000     0          
O        O      0.843833333333     0.156200000000     0.312650000000     0          
O        O      0.966233333333     0.033766666667     0.375000000000     0          
O        O      0.910533333333     0.288600000000     0.375000000000     0          
O        O      0.961366666667     0.038600000000     0.240950000000     0          
O        O      0.678166666667     0.113066666667     0.030300000000     0          
O        O      0.674400000000     0.110666666667     0.093400000000     0          
O        O      0.744966666667     0.156566666667     0.064400000000     0          
O        O      0.687633333333     0.177166666667     0.062650000000     0          
O        O      0.932466666667     0.299566666667     0.125000000000     0          
O        O      0.955266666667     0.243866666667     0.125000000000     0          
O        O      0.922766666667     0.294700000000     0.490950000000     0          
O        O      0.898433333333     0.011500000000     0.280300000000     0          
O        O      0.897066666667     0.007733333333     0.343400000000     0          
O        O      0.921733333333     0.078300000000     0.314400000000     0          
O        O      0.843800000000     0.020966666667     0.312650000000     0          
O        O      0.966233333333     0.265800000000     0.375000000000     0          
O        O      0.711400000000     0.288600000000     0.375000000000     0          
O        O      0.961400000000     0.256100000000     0.240950000000     0          
O        O      0.768233333333     0.113066666667     0.219700000000     0          
O        O      0.769600000000     0.110666666667     0.156600000000     0          
O        O      0.744933333333     0.156566666667     0.185600000000     0          
O        O      0.822866666667     0.177166666667     0.187350000000     0          
O        O      0.705266666667     0.294700000000     0.259050000000     0          
O        O      0.988500000000     0.101566666667     0.469700000000     0          
O        O      0.992266666667     0.102933333333     0.406600000000     0          
O        O      0.921700000000     0.078266666667     0.435600000000     0          
O        O      0.979033333333     0.156200000000     0.437350000000     0          
O        O      0.743900000000     0.038600000000     0.009050000000     0          
O        O      0.886933333333     0.321833333333     0.219700000000     0          
O        O      0.889333333333     0.325600000000     0.156600000000     0          
O        O      0.843433333333     0.255033333333     0.185600000000     0          
O        O      0.822833333333     0.312366666667     0.187350000000     0          
O        O      0.705300000000     0.077233333333     0.259050000000     0          
O        O      0.898433333333     0.220266666667     0.469700000000     0          
O        O      0.897066666667     0.222666666667     0.406600000000     0          
O        O      0.921733333333     0.176766666667     0.435600000000     0          
O        O      0.843800000000     0.156166666667     0.437350000000     0          
O        O      0.961400000000     0.038633333333     0.009050000000     0          
O        O      0.678166666667     0.231766666667     0.219700000000     0          
O        O      0.674400000000     0.230400000000     0.156600000000     0          
O        O      0.744966666667     0.255066666667     0.185600000000     0          
O        O      0.687633333333     0.177133333333     0.187350000000     0          
O        O      0.922766666667     0.294733333333     0.259050000000     0          
O        O      0.779733333333     0.011500000000     0.469700000000     0          
O        O      0.777333333333     0.007733333333     0.406600000000     0          
O        O      0.823233333333     0.078300000000     0.435600000000     0          
O        O      0.843833333333     0.020966666667     0.437350000000     0          
O        O      0.961366666667     0.256100000000     0.009050000000     0          
O        O      0.779733333333     0.101566666667     0.469700000000     0          
O        O      0.777333333333     0.102933333333     0.406600000000     0          
O        O      0.678166666667     0.113066666667     0.219700000000     0          
O        O      0.674400000000     0.110666666667     0.156600000000     0          
O        O      0.898433333333     0.011500000000     0.469700000000     0          
O        O      0.897066666667     0.007733333333     0.406600000000     0          
O        O      0.886933333333     0.231766666667     0.219700000000     0          
O        O      0.889333333333     0.230400000000     0.156600000000     0          
O        O      0.988500000000     0.220266666667     0.469700000000     0          
O        O      0.992266666667     0.222666666667     0.406600000000     0          
O        O      0.768233333333     0.321833333333     0.219700000000     0          
O        O      0.769600000000     0.325600000000     0.156600000000     0          
O        O      0.898433333333     0.220266666667     0.280300000000     0          
O        O      0.897066666667     0.222666666667     0.343400000000     0          
O        O      0.678166666667     0.231766666667     0.030300000000     0          
O        O      0.674400000000     0.230400000000     0.093400000000     0          
O        O      0.779733333333     0.011500000000     0.280300000000     0          
O        O      0.777333333333     0.007733333333     0.343400000000     0          
O        O      0.768233333333     0.113066666667     0.030300000000     0          
O        O      0.769600000000     0.110666666667     0.093400000000     0          
O        O      0.988500000000     0.101566666667     0.280300000000     0          
O        O      0.992266666667     0.102933333333     0.343400000000     0          
O        O      0.886933333333     0.321833333333     0.030300000000     0          
O        O      0.889333333333     0.325600000000     0.093400000000     0          
O        O      0.886933333333     0.231766666667     0.530300000000     0          
O        O      0.889333333333     0.230400000000     0.593400000000     0          
O        O      0.843433333333     0.255066666667     0.564400000000     0          
O        O      0.822833333333     0.177133333333     0.562650000000     0          
O        O      0.700433333333     0.299566666667     0.625000000000     0          
O        O      0.756133333333     0.044733333333     0.625000000000     0          
O        O      0.705300000000     0.294733333333     0.990950000000     0          
O        O      0.988500000000     0.220266666667     0.780300000000     0          
O        O      0.992266666667     0.222666666667     0.843400000000     0          
O        O      0.921700000000     0.176766666667     0.814400000000     0          
O        O      0.979033333333     0.156166666667     0.812650000000     0          
O        O      0.734200000000     0.033766666667     0.875000000000     0          
O        O      0.711400000000     0.089466666667     0.875000000000     0          
O        O      0.743900000000     0.038633333333     0.740950000000     0          
O        O      0.768233333333     0.321833333333     0.530300000000     0          
O        O      0.769600000000     0.325600000000     0.593400000000     0          
O        O      0.744933333333     0.255033333333     0.564400000000     0          
O        O      0.822866666667     0.312366666667     0.562650000000     0          
O        O      0.700433333333     0.067533333333     0.625000000000     0          
O        O      0.955266666667     0.044733333333     0.625000000000     0          
O        O      0.705266666667     0.077233333333     0.990950000000     0          
O        O      0.779733333333     0.101566666667     0.780300000000     0          
O        O      0.777333333333     0.102933333333     0.843400000000     0          
O        O      0.823233333333     0.078266666667     0.814400000000     0          
O        O      0.843833333333     0.156200000000     0.812650000000     0          
O        O      0.966233333333     0.033766666667     0.875000000000     0          
O        O      0.910533333333     0.288600000000     0.875000000000     0          
O        O      0.961366666667     0.038600000000     0.740950000000     0          
O        O      0.678166666667     0.113066666667     0.530300000000     0          
O        O      0.674400000000     0.110666666667     0.593400000000     0          
O        O      0.744966666667     0.156566666667     0.564400000000     0          
O        O      0.687633333333     0.177166666667     0.562650000000     0          
O        O      0.932466666667     0.299566666667     0.625000000000     0          
O        O      0.955266666667     0.243866666667     0.625000000000     0          
O        O      0.922766666667     0.294700000000     0.990950000000     0          
O        O      0.898433333333     0.011500000000     0.780300000000     0          
O        O      0.897066666667     0.007733333333     0.843400000000     0          
O        O      0.921733333333     0.078300000000     0.814400000000     0          
O        O      0.843800000000     0.020966666667     0.812650000000     0          
O        O      0.966233333333     0.265800000000     0.875000000000     0          
O        O      0.711400000000     0.288600000000     0.875000000000     0          
O        O      0.961400000000     0.256100000000     0.740950000000     0          
O        O      0.768233333333     0.113066666667     0.719700000000     0          
O        O      0.769600000000     0.110666666667     0.656600000000     0          
O        O      0.744933333333     0.156566666667     0.685600000000     0          
O        O      0.822866666667     0.177166666667     0.687350000000     0          
O        O      0.705266666667     0.294700000000     0.759050000000     0          
O        O      0.988500000000     0.101566666667     0.969700000000     0          
O        O      0.992266666667     0.102933333333     0.906600000000     0          
O        O      0.921700000000     0.078266666667     0.935600000000     0          
O        O      0.979033333333     0.156200000000     0.937350000000     0          
O        O      0.743900000000     0.038600000000     0.509050000000     0          
O        O      0.886933333333     0.321833333333     0.719700000000     0          
O        O      0.889333333333     0.325600000000     0.656600000000     0          
O        O      0.843433333333     0.255033333333     0.685600000000     0          
O        O      0.822833333333     0.312366666667     0.687350000000     0          
O        O      0.705300000000     0.077233333333     0.759050000000     0          
O        O      0.898433333333     0.220266666667     0.969700000000     0          
O        O      0.897066666667     0.222666666667     0.906600000000     0          
O        O      0.921733333333     0.176766666667     0.935600000000     0          
O        O      0.843800000000     0.156166666667     0.937350000000     0          
O        O      0.961400000000     0.038633333333     0.509050000000     0          
O        O      0.678166666667     0.231766666667     0.719700000000     0          
O        O      0.674400000000     0.230400000000     0.656600000000     0          
O        O      0.744966666667     0.255066666667     0.685600000000     0          
O        O      0.687633333333     0.177133333333     0.687350000000     0          
O        O      0.922766666667     0.294733333333     0.759050000000     0          
O        O      0.779733333333     0.011500000000     0.969700000000     0          
O        O      0.777333333333     0.007733333333     0.906600000000     0          
O        O      0.823233333333     0.078300000000     0.935600000000     0          
O        O      0.843833333333     0.020966666667     0.937350000000     0          
O        O      0.961366666667     0.256100000000     0.509050000000     0          
O        O      0.779733333333     0.101566666667     0.969700000000     0          
O        O      0.777333333333     0.102933333333     0.906600000000     0          
O        O      0.678166666667     0.113066666667     0.719700000000     0          
O        O      0.674400000000     0.110666666667     0.656600000000     0          
O        O      0.898433333333     0.011500000000     0.969700000000     0          
O        O      0.897066666667     0.007733333333     0.906600000000     0          
O        O      0.886933333333     0.231766666667     0.719700000000     0          
O        O      0.889333333333     0.230400000000     0.656600000000     0          
O        O      0.988500000000     0.220266666667     0.969700000000     0          
O        O      0.992266666667     0.222666666667     0.906600000000     0          
O        O      0.768233333333     0.321833333333     0.719700000000     0          
O        O      0.769600000000     0.325600000000     0.656600000000     0          
O        O      0.898433333333     0.220266666667     0.780300000000     0          
O        O      0.897066666667     0.222666666667     0.843400000000     0          
O        O      0.678166666667     0.231766666667     0.530300000000     0          
O        O      0.674400000000     0.230400000000     0.593400000000     0          
O        O      0.779733333333     0.011500000000     0.780300000000     0          
O        O      0.777333333333     0.007733333333     0.843400000000     0          
O        O      0.768233333333     0.113066666667     0.530300000000     0          
O        O      0.769600000000     0.110666666667     0.593400000000     0          
O        O      0.988500000000     0.101566666667     0.780300000000     0          
O        O      0.992266666667     0.102933333333     0.843400000000     0          
O        O      0.886933333333     0.321833333333     0.530300000000     0          
O        O      0.889333333333     0.325600000000     0.593400000000     0          
O        O      0.886933333333     0.565100000000     0.030300000000     0          
O        O      0.889333333333     0.563733333333     0.093400000000     0          
O        O      0.843433333333     0.588400000000     0.064400000000     0          
O        O      0.822833333333     0.510466666667     0.062650000000     0          
O        O      0.700433333333     0.632900000000     0.125000000000     0          
O        O      0.756133333333     0.378066666667     0.125000000000     0          
O        O      0.705300000000     0.628066666667     0.490950000000     0          
O        O      0.988500000000     0.553600000000     0.280300000000     0          
O        O      0.992266666667     0.556000000000     0.343400000000     0          
O        O      0.921700000000     0.510100000000     0.314400000000     0          
O        O      0.979033333333     0.489500000000     0.312650000000     0          
O        O      0.734200000000     0.367100000000     0.375000000000     0          
O        O      0.711400000000     0.422800000000     0.375000000000     0          
O        O      0.743900000000     0.371966666667     0.240950000000     0          
O        O      0.768233333333     0.655166666667     0.030300000000     0          
O        O      0.769600000000     0.658933333333     0.093400000000     0          
O        O      0.744933333333     0.588366666667     0.064400000000     0          
O        O      0.822866666667     0.645700000000     0.062650000000     0          
O        O      0.700433333333     0.400866666667     0.125000000000     0          
O        O      0.955266666667     0.378066666667     0.125000000000     0          
O        O      0.705266666667     0.410566666667     0.490950000000     0          
O        O      0.779733333333     0.434900000000     0.280300000000     0          
O        O      0.777333333333     0.436266666667     0.343400000000     0          
O        O      0.823233333333     0.411600000000     0.314400000000     0          
O        O      0.843833333333     0.489533333333     0.312650000000     0          
O        O      0.966233333333     0.367100000000     0.375000000000     0          
O        O      0.910533333333     0.621933333333     0.375000000000     0          
O        O      0.961366666667     0.371933333333     0.240950000000     0          
O        O      0.678166666667     0.446400000000     0.030300000000     0          
O        O      0.674400000000     0.444000000000     0.093400000000     0          
O        O      0.744966666667     0.489900000000     0.064400000000     0          
O        O      0.687633333333     0.510500000000     0.062650000000     0          
O        O      0.932466666667     0.632900000000     0.125000000000     0          
O        O      0.955266666667     0.577200000000     0.125000000000     0          
O        O      0.922766666667     0.628033333333     0.490950000000     0          
O        O      0.898433333333     0.344833333333     0.280300000000     0          
O        O      0.897066666667     0.341066666667     0.343400000000     0          
O        O      0.921733333333     0.411633333333     0.314400000000     0          
O        O      0.843800000000     0.354300000000     0.312650000000     0          
O        O      0.966233333333     0.599133333333     0.375000000000     0          
O        O      0.711400000000     0.621933333333     0.375000000000     0          
O        O      0.961400000000     0.589433333333     0.240950000000     0          
O        O      0.768233333333     0.446400000000     0.219700000000     0          
O        O      0.769600000000     0.444000000000     0.156600000000     0          
O        O      0.744933333333     0.489900000000     0.185600000000     0          
O        O      0.822866666667     0.510500000000     0.187350000000     0          
O        O      0.705266666667     0.628033333333     0.259050000000     0          
O        O      0.988500000000     0.434900000000     0.469700000000     0          
O        O      0.992266666667     0.436266666667     0.406600000000     0          
O        O      0.921700000000     0.411600000000     0.435600000000     0          
O        O      0.979033333333     0.489533333333     0.437350000000     0          
O        O      0.743900000000     0.371933333333     0.009050000000     0          
O        O      0.886933333333     0.655166666667     0.219700000000     0          
O        O      0.889333333333     0.658933333333     0.156600000000     0          
O        O      0.843433333333     0.588366666667     0.185600000000     0          
O        O      0.822833333333     0.645700000000     0.187350000000     0          
O        O      0.705300000000     0.410566666667     0.259050000000     0          
O        O      0.898433333333     0.553600000000     0.469700000000     0          
O        O      0.897066666667     0.556000000000     0.406600000000     0          
O        O      0.921733333333     0.510100000000     0.435600000000     0          
O        O      0.843800000000     0.489500000000     0.437350000000     0          
O        O      0.961400000000     0.371966666667     0.009050000000     0          
O        O      0.678166666667     0.565100000000     0.219700000000     0          
O        O      0.674400000000     0.563733333333     0.156600000000     0          
O        O      0.744966666667     0.588400000000     0.185600000000     0          
O        O      0.687633333333     0.510466666667     0.187350000000     0          
O        O      0.922766666667     0.628066666667     0.259050000000     0          
O        O      0.779733333333     0.344833333333     0.469700000000     0          
O        O      0.777333333333     0.341066666667     0.406600000000     0          
O        O      0.823233333333     0.411633333333     0.435600000000     0          
O        O      0.843833333333     0.354300000000     0.437350000000     0          
O        O      0.961366666667     0.589433333333     0.009050000000     0          
O        O      0.779733333333     0.434900000000     0.469700000000     0          
O        O      0.777333333333     0.436266666667     0.406600000000     0          
O        O      0.678166666667     0.446400000000     0.219700000000     0          
O        O      0.674400000000     0.444000000000     0.156600000000     0          
O        O      0.898433333333     0.344833333333     0.469700000000     0          
O        O      0.897066666667     0.341066666667     0.406600000000     0          
O        O      0.886933333333     0.565100000000     0.219700000000     0          
O        O      0.889333333333     0.563733333333     0.156600000000     0          
O        O      0.988500000000     0.553600000000     0.469700000000     0          
O        O      0.992266666667     0.556000000000     0.406600000000     0          
O        O      0.768233333333     0.655166666667     0.219700000000     0          
O        O      0.769600000000     0.658933333333     0.156600000000     0          
O        O      0.898433333333     0.553600000000     0.280300000000     0          
O        O      0.897066666667     0.556000000000     0.343400000000     0          
O        O      0.678166666667     0.565100000000     0.030300000000     0          
O        O      0.674400000000     0.563733333333     0.093400000000     0          
O        O      0.779733333333     0.344833333333     0.280300000000     0          
O        O      0.777333333333     0.341066666667     0.343400000000     0          
O        O      0.768233333333     0.446400000000     0.030300000000     0          
O        O      0.769600000000     0.444000000000     0.093400000000     0          
O        O      0.988500000000     0.434900000000     0.280300000000     0          
O        O      0.992266666667     0.436266666667     0.343400000000     0          
O        O      0.886933333333     0.655166666667     0.030300000000     0          
O        O      0.889333333333     0.658933333333     0.093400000000     0          
O        O      0.886933333333     0.565100000000     0.530300000000     0          
O        O      0.889333333333     0.563733333333     0.593400000000     0          
O        O      0.843433333333     0.588400000000     0.564400000000     0          
O        O      0.822833333333     0.510466666667     0.562650000000     0          
O        O      0.700433333333     0.632900000000     0.625000000000     0          
O        O      0.756133333333     0.378066666667     0.625000000000     0          
O        O      0.705300000000     0.628066666667     0.990950000000     0          
O        O      0.988500000000     0.553600000000     0.780300000000     0          
O        O      0.992266666667     0.556000000000     0.843400000000     0          
O        O      0.921700000000     0.510100000000     0.814400000000     0          
O        O      0.979033333333     0.489500000000     0.812650000000     0          
O        O      0.734200000000     0.367100000000     0.875000000000     0          
O        O      0.711400000000     0.422800000000     0.875000000000     0          
O        O      0.743900000000     0.371966666667     0.740950000000     0          
O        O      0.768233333333     0.655166666667     0.530300000000     0          
O        O      0.769600000000     0.658933333333     0.593400000000     0          
O        O      0.744933333333     0.588366666667     0.564400000000     0          
O        O      0.822866666667     0.645700000000     0.562650000000     0          
O        O      0.700433333333     0.400866666667     0.625000000000     0          
O        O      0.955266666667     0.378066666667     0.625000000000     0          
O        O      0.705266666667     0.410566666667     0.990950000000     0          
O        O      0.779733333333     0.434900000000     0.780300000000     0          
O        O      0.777333333333     0.436266666667     0.843400000000     0          
O        O      0.823233333333     0.411600000000     0.814400000000     0          
O        O      0.843833333333     0.489533333333     0.812650000000     0          
O        O      0.966233333333     0.367100000000     0.875000000000     0          
O        O      0.910533333333     0.621933333333     0.875000000000     0          
O        O      0.961366666667     0.371933333333     0.740950000000     0          
O        O      0.678166666667     0.446400000000     0.530300000000     0          
O        O      0.674400000000     0.444000000000     0.593400000000     0          
O        O      0.744966666667     0.489900000000     0.564400000000     0          
O        O      0.687633333333     0.510500000000     0.562650000000     0          
O        O      0.932466666667     0.632900000000     0.625000000000     0          
O        O      0.955266666667     0.577200000000     0.625000000000     0          
O        O      0.922766666667     0.628033333333     0.990950000000     0          
O        O      0.898433333333     0.344833333333     0.780300000000     0          
O        O      0.897066666667     0.341066666667     0.843400000000     0          
O        O      0.921733333333     0.411633333333     0.814400000000     0          
O        O      0.843800000000     0.354300000000     0.812650000000     0          
O        O      0.966233333333     0.599133333333     0.875000000000     0          
O        O      0.711400000000     0.621933333333     0.875000000000     0          
O        O      0.961400000000     0.589433333333     0.740950000000     0          
O        O      0.768233333333     0.446400000000     0.719700000000     0          
O        O      0.769600000000     0.444000000000     0.656600000000     0          
O        O      0.744933333333     0.489900000000     0.685600000000     0          
O        O      0.822866666667     0.510500000000     0.687350000000     0          
O        O      0.705266666667     0.628033333333     0.759050000000     0          
O        O      0.988500000000     0.434900000000     0.969700000000     0          
O        O      0.992266666667     0.436266666667     0.906600000000     0          
O        O      0.921700000000     0.411600000000     0.935600000000     0          
O        O      0.979033333333     0.489533333333     0.937350000000     0          
O        O      0.743900000000     0.371933333333     0.509050000000     0          
O        O      0.886933333333     0.655166666667     0.719700000000     0          
O        O      0.889333333333     0.658933333333     0.656600000000     0          
O        O      0.843433333333     0.588366666667     0.685600000000     0          
O        O      0.822833333333     0.645700000000     0.687350000000     0          
O        O      0.705300000000     0.410566666667     0.759050000000     0          
O        O      0.898433333333     0.553600000000     0.969700000000     0          
O        O      0.897066666667     0.556000000000     0.906600000000     0          
O        O      0.921733333333     0.510100000000     0.935600000000     0          
O        O      0.843800000000     0.489500000000     0.937350000000     0          
O        O      0.961400000000     0.371966666667     0.509050000000     0          
O        O      0.678166666667     0.565100000000     0.719700000000     0          
O        O      0.674400000000     0.563733333333     0.656600000000     0          
O        O      0.744966666667     0.588400000000     0.685600000000     0          
O        O      0.687633333333     0.510466666667     0.687350000000     0          
O        O      0.922766666667     0.628066666667     0.759050000000     0          
O        O      0.779733333333     0.344833333333     0.969700000000     0          
O        O      0.777333333333     0.341066666667     0.906600000000     0          
O        O      0.823233333333     0.411633333333     0.935600000000     0          
O        O      0.843833333333     0.354300000000     0.937350000000     0          
O        O      0.961366666667     0.589433333333     0.509050000000     0          
O        O      0.779733333333     0.434900000000     0.969700000000     0          
O        O      0.777333333333     0.436266666667     0.906600000000     0          
O        O      0.678166666667     0.446400000000     0.719700000000     0          
O        O      0.674400000000     0.444000000000     0.656600000000     0          
O        O      0.898433333333     0.344833333333     0.969700000000     0          
O        O      0.897066666667     0.341066666667     0.906600000000     0          
O        O      0.886933333333     0.565100000000     0.719700000000     0          
O        O      0.889333333333     0.563733333333     0.656600000000     0          
O        O      0.988500000000     0.553600000000     0.969700000000     0          
O        O      0.992266666667     0.556000000000     0.906600000000     0          
O        O      0.768233333333     0.655166666667     0.719700000000     0          
O        O      0.769600000000     0.658933333333     0.656600000000     0          
O        O      0.898433333333     0.553600000000     0.780300000000     0          
O        O      0.897066666667     0.556000000000     0.843400000000     0          
O        O      0.678166666667     0.565100000000     0.530300000000     0          
O        O      0.674400000000     0.563733333333     0.593400000000     0          
O        O      0.779733333333     0.344833333333     0.780300000000     0          
O        O      0.777333333333     0.341066666667     0.843400000000     0          
O        O      0.768233333333     0.446400000000     0.530300000000     0          
O        O      0.769600000000     0.444000000000     0.593400000000     0          
O        O      0.988500000000     0.434900000000     0.780300000000     0          
O        O      0.992266666667     0.436266666667     0.843400000000     0          
O        O      0.886933333333     0.655166666667     0.530300000000     0          
O        O      0.889333333333     0.658933333333     0.593400000000     0          
O        O      0.886933333333     0.898433333333     0.030300000000     0          
O        O      0.889333333333     0.897066666667     0.093400000000     0          
O        O      0.843433333333     0.921733333333     0.064400000000     0          
O        O      0.822833333333     0.843800000000     0.062650000000     0          
O        O      0.700433333333     0.966233333333     0.125000000000     0          
O        O      0.756133333333     0.711400000000     0.125000000000     0          
O        O      0.705300000000     0.961400000000     0.490950000000     0          
O        O      0.988500000000     0.886933333333     0.280300000000     0          
O        O      0.992266666667     0.889333333333     0.343400000000     0          
O        O      0.921700000000     0.843433333333     0.314400000000     0          
O        O      0.979033333333     0.822833333333     0.312650000000     0          
O        O      0.734200000000     0.700433333333     0.375000000000     0          
O        O      0.711400000000     0.756133333333     0.375000000000     0          
O        O      0.743900000000     0.705300000000     0.240950000000     0          
O        O      0.768233333333     0.988500000000     0.030300000000     0          
O        O      0.769600000000     0.992266666667     0.093400000000     0          
O        O      0.744933333333     0.921700000000     0.064400000000     0          
O        O      0.822866666667     0.979033333333     0.062650000000     0          
O        O      0.700433333333     0.734200000000     0.125000000000     0          
O        O      0.955266666667     0.711400000000     0.125000000000     0          
O        O      0.705266666667     0.743900000000     0.490950000000     0          
O        O      0.779733333333     0.768233333333     0.280300000000     0          
O        O      0.777333333333     0.769600000000     0.343400000000     0          
O        O      0.823233333333     0.744933333333     0.314400000000     0          
O        O      0.843833333333     0.822866666667     0.312650000000     0          
O        O      0.966233333333     0.700433333333     0.375000000000     0          
O        O      0.910533333333     0.955266666667     0.375000000000     0          
O        O      0.961366666667     0.705266666667     0.240950000000     0          
O        O      0.678166666667     0.779733333333     0.030300000000     0          
O        O      0.674400000000     0.777333333333     0.093400000000     0          
O        O      0.744966666667     0.823233333333     0.064400000000     0          
O        O      0.687633333333     0.843833333333     0.062650000000     0          
O        O      0.932466666667     0.966233333333     0.125000000000     0          
O        O      0.955266666667     0.910533333333     0.125000000000     0          
O        O      0.922766666667     0.961366666667     0.490950000000     0          
O        O      0.898433333333     0.678166666667     0.280300000000     0          
O        O      0.897066666667     0.674400000000     0.343400000000     0          
O        O      0.921733333333     0.744966666667     0.314400000000     0          
O        O      0.843800000000     0.687633333333     0.312650000000     0          
O        O      0.966233333333     0.932466666667     0.375000000000     0          
O        O      0.711400000000     0.955266666667     0.375000000000     0          
O        O      0.961400000000     0.922766666667     0.240950000000     0          
O        O      0.768233333333     0.779733333333     0.219700000000     0          
O        O      0.769600000000     0.777333333333     0.156600000000     0          
O        O      0.744933333333     0.823233333333     0.185600000000     0          
O        O      0.822866666667     0.843833333333     0.187350000000     0          
O        O      0.705266666667     0.961366666667     0.259050000000     0          
O        O      0.988500000000     0.768233333333     0.469700000000     0          
O        O      0.992266666667     0.769600000000     0.406600000000     0          
O        O      0.921700000000     0.744933333333     0.435600000000     0          
O        O      0.979033333333     0.822866666667     0.437350000000     0          
O        O      0.743900000000     0.705266666667     0.009050000000     0          
O        O      0.886933333333     0.988500000000     0.219700000000     0          
O        O      0.889333333333     0.992266666667     0.156600000000     0          
O        O      0.843433333333     0.921700000000     0.185600000000     0          
O        O      0.822833333333     0.979033333333     0.187350000000     0          
O        O      0.705300000000     0.743900000000     0.259050000000     0          
O        O      0.898433333333     0.886933333333     0.469700000000     0          
O        O      0.897066666667     0.889333333333     0.406600000000     0          
O        O      0.921733333333     0.843433333333     0.435600000000     0          
O        O      0.843800000000     0.822833333333     0.437350000000     0          
O        O      0.961400000000     0.705300000000     0.009050000000     0          
O        O      0.678166666667     0.898433333333     0.219700000000     0          
O        O      0.674400000000     0.897066666667     0.156600000000     0          
O        O      0.744966666667     0.921733333333     0.185600000000     0          
O        O      0.687633333333     0.843800000000     0.187350000000     0          
O        O      0.922766666667     0.961400000000     0.259050000000     0          
O        O      0.779733333333     0.678166666667     0.469700000000     0          
O        O      0.777333333333     0.674400000000     0.406600000000     0          
O        O      0.823233333333     0.744966666667     0.435600000000     0          
O        O      0.843833333333     0.687633333333     0.437350000000     0          
O        O      0.961366666667     0.922766666667     0.009050000000     0          
O        O      0.779733333333     0.768233333333     0.469700000000     0          
O        O      0.777333333333     0.769600000000     0.406600000000     0          
O        O      0.678166666667     0.779733333333     0.219700000000     0          
O        O      0.674400000000     0.777333333333     0.156600000000     0          
O        O      0.898433333333     0.678166666667     0.469700000000     0          
O        O      0.897066666667     0.674400000000     0.406600000000     0          
O        O      0.886933333333     0.898433333333     0.219700000000     0          
O        O      0.889333333333     0.897066666667     0.156600000000     0          
O        O      0.988500000000     0.886933333333     0.469700000000     0          
O        O      0.992266666667     0.889333333333     0.406600000000     0          
O        O      0.768233333333     0.988500000000     0.219700000000     0          
O        O      0.769600000000     0.992266666667     0.156600000000     0          
O        O      0.898433333333     0.886933333333     0.280300000000     0          
O        O      0.897066666667     0.889333333333     0.343400000000     0          
O        O      0.678166666667     0.898433333333     0.030300000000     0          
O        O      0.674400000000     0.897066666667     0.093400000000     0          
O        O      0.779733333333     0.678166666667     0.280300000000     0          
O        O      0.777333333333     0.674400000000     0.343400000000     0          
O        O      0.768233333333     0.779733333333     0.030300000000     0          
O        O      0.769600000000     0.777333333333     0.093400000000     0          
O        O      0.988500000000     0.768233333333     0.280300000000     0          
O        O      0.992266666667     0.769600000000     0.343400000000     0          
O        O      0.886933333333     0.988500000000     0.030300000000     0          
O        O      0.889333333333     0.992266666667     0.093400000000     0          
O        O      0.886933333333     0.898433333333     0.530300000000     0          
O        O      0.889333333333     0.897066666667     0.593400000000     0          
O        O      0.843433333333     0.921733333333     0.564400000000     0          
O        O      0.822833333333     0.843800000000     0.562650000000     0          
O        O      0.700433333333     0.966233333333     0.625000000000     0          
O        O      0.756133333333     0.711400000000     0.625000000000     0          
O        O      0.705300000000     0.961400000000     0.990950000000     0          
O        O      0.988500000000     0.886933333333     0.780300000000     0          
O        O      0.992266666667     0.889333333333     0.843400000000     0          
O        O      0.921700000000     0.843433333333     0.814400000000     0          
O        O      0.979033333333     0.822833333333     0.812650000000     0          
O        O      0.734200000000     0.700433333333     0.875000000000     0          
O        O      0.711400000000     0.756133333333     0.875000000000     0          
O        O      0.743900000000     0.705300000000     0.740950000000     0          
O        O      0.768233333333     0.988500000000     0.530300000000     0          
O        O      0.769600000000     0.992266666667     0.593400000000     0          
O        O      0.744933333333     0.921700000000     0.564400000000     0          
O        O      0.822866666667     0.979033333333     0.562650000000     0          
O        O      0.700433333333     0.734200000000     0.625000000000     0          
O        O      0.955266666667     0.711400000000     0.625000000000     0          
O        O      0.705266666667     0.743900000000     0.990950000000     0          
O        O      0.779733333333     0.768233333333     0.780300000000     0          
O        O      0.777333333333     0.769600000000     0.843400000000     0          
O        O      0.823233333333     0.744933333333     0.814400000000     0          
O        O      0.843833333333     0.822866666667     0.812650000000     0          
O        O      0.966233333333     0.700433333333     0.875000000000     0          
O        O      0.910533333333     0.955266666667     0.875000000000     0          
O        O      0.961366666667     0.705266666667     0.740950000000     0          
O        O      0.678166666667     0.779733333333     0.530300000000     0          
O        O      0.674400000000     0.777333333333     0.593400000000     0          
O        O      0.744966666667     0.823233333333     0.564400000000     0          
O        O      0.687633333333     0.843833333333     0.562650000000     0          
O        O      0.932466666667     0.966233333333     0.625000000000     0          
O        O      0.955266666667     0.910533333333     0.625000000000     0          
O        O      0.922766666667     0.961366666667     0.990950000000     0          
O        O      0.898433333333     0.678166666667     0.780300000000     0          
O        O      0.897066666667     0.674400000000     0.843400000000     0          
O        O      0.921733333333     0.744966666667     0.814400000000     0          
O        O      0.843800000000     0.687633333333     0.812650000000     0          
O        O      0.966233333333     0.932466666667     0.875000000000     0          
O        O      0.711400000000     0.955266666667     0.875000000000     0          
O        O      0.961400000000     0.922766666667     0.740950000000     0          
O        O      0.768233333333     0.779733333333     0.719700000000     0          
O        O      0.769600000000     0.777333333333     0.656600000000     0          
O        O      0.744933333333     0.823233333333     0.685600000000     0          
O        O      0.822866666667     0.843833333333     0.687350000000     0          
O        O      0.705266666667     0.961366666667     0.759050000000     0          
O        O      0.988500000000     0.768233333333     0.969700000000     0          
O        O      0.992266666667     0.769600000000     0.906600000000     0          
O        O      0.921700000000     0.744933333333     0.935600000000     0          
O        O      0.979033333333     0.822866666667     0.937350000000     0          
O        O      0.743900000000     0.705266666667     0.509050000000     0          
O        O      0.886933333333     0.988500000000     0.719700000000     0          
O        O      0.889333333333     0.992266666667     0.656600000000     0          
O        O      0.843433333333     0.921700000000     0.685600000000     0          
O        O      0.822833333333     0.979033333333     0.687350000000     0          
O        O      0.705300000000     0.743900000000     0.759050000000     0          
O        O      0.898433333333     0.886933333333     0.969700000000     0          
O        O      0.897066666667     0.889333333333     0.906600000000     0          
O        O      0.921733333333     0.843433333333     0.935600000000     0          
O        O      0.843800000000     0.822833333333     0.937350000000     0          
O        O      0.961400000000     0.705300000000     0.509050000000     0          
O        O      0.678166666667     0.898433333333     0.719700000000     0          
O        O      0.674400000000     0.897066666667     0.656600000000     0          
O        O      0.744966666667     0.921733333333     0.685600000000     0          
O        O      0.687633333333     0.843800000000     0.687350000000     0          
O        O      0.922766666667     0.961400000000     0.759050000000     0          
O        O      0.779733333333     0.678166666667     0.969700000000     0          
O        O      0.777333333333     0.674400000000     0.906600000000     0          
O        O      0.823233333333     0.744966666667     0.935600000000     0          
O        O      0.843833333333     0.687633333333     0.937350000000     0          
O        O      0.961366666667     0.922766666667     0.509050000000     0          
O        O      0.779733333333     0.768233333333     0.969700000000     0          
O        O      0.777333333333     0.769600000000     0.906600000000     0          
O        O      0.678166666667     0.779733333333     0.719700000000     0          
O        O      0.674400000000     0.777333333333     0.656600000000     0          
O        O      0.898433333333     0.678166666667     0.969700000000     0          
O        O      0.897066666667     0.674400000000     0.906600000000     0          
O        O      0.886933333333     0.898433333333     0.719700000000     0          
O        O      0.889333333333     0.897066666667     0.656600000000     0          
O        O      0.988500000000     0.886933333333     0.969700000000     0          
O        O      0.992266666667     0.889333333333     0.906600000000     0          
O        O      0.768233333333     0.988500000000     0.719700000000     0          
O        O      0.769600000000     0.992266666667     0.656600000000     0          
O        O      0.898433333333     0.886933333333     0.780300000000     0          
O        O      0.897066666667     0.889333333333     0.843400000000     0          
O        O      0.678166666667     0.898433333333     0.530300000000     0          
O        O      0.674400000000     0.897066666667     0.593400000000     0          
O        O      0.779733333333     0.678166666667     0.780300000000     0          
O        O      0.777333333333     0.674400000000     0.843400000000     0          
O        O      0.768233333333     0.779733333333     0.530300000000     0          
O        O      0.769600000000     0.777333333333     0.593400000000     0          
O        O      0.988500000000     0.768233333333     0.780300000000     0          
O        O      0.992266666667     0.769600000000     0.843400000000     0          
O        O      0.886933333333     0.988500000000     0.530300000000     0          
O        O      0.889333333333     0.992266666667     0.593400000000     0          


