data_zeolite

_audit_creation_method RASPA-1.0
_audit_creation_date 2021-6-6
_audit_author_name ''

_cell_length_a    18.628
_cell_length_b    13.436
_cell_length_c    7.629
_cell_angle_alpha 90
_cell_angle_beta  102.322
_cell_angle_gamma 90
_cell_volume      29847.1

_symmetry_cell_setting          monoclinic
_symmetry_space_group_name_Hall 'P 1'
_symmetry_space_group_name_H-M  'P 1'
_symmetry_Int_Tables_number     1

_symmetry_equiv_pos_as_xyz 'x,y,z'

loop_
_atom_site_label
_atom_site_type_symbol
_atom_site_fract_x
_atom_site_fract_y
_atom_site_fract_z
_atom_site_charge
T        Si     0.418750000000     0.351500000000     0.183775000000     0          
T        Si     0.492950000000     0.307050000000     0.173200000000     0          
T        Si     0.074400000000     0.307150000000     0.224525000000     0          
T        Si     0.377650000000     0.307300000000     0.095125000000     0          
T        Si     0.081250000000     0.351500000000     0.066225000000     0          
T        Si     0.007050000000     0.307050000000     0.076800000000     0          
T        Si     0.425600000000     0.307150000000     0.025475000000     0          
T        Si     0.122350000000     0.307300000000     0.154875000000     0          
T        Si     0.081250000000     0.148500000000     0.066225000000     0          
T        Si     0.007050000000     0.192950000000     0.076800000000     0          
T        Si     0.425600000000     0.192850000000     0.025475000000     0          
T        Si     0.122350000000     0.192700000000     0.154875000000     0          
T        Si     0.418750000000     0.148500000000     0.183775000000     0          
T        Si     0.492950000000     0.192950000000     0.173200000000     0          
T        Si     0.074400000000     0.192850000000     0.224525000000     0          
T        Si     0.377650000000     0.192700000000     0.095125000000     0          
T        Si     0.168750000000     0.101500000000     0.183775000000     0          
T        Si     0.242950000000     0.057050000000     0.173200000000     0          
T        Si     0.324400000000     0.057150000000     0.224525000000     0          
T        Si     0.127650000000     0.057300000000     0.095125000000     0          
T        Si     0.331250000000     0.101500000000     0.066225000000     0          
T        Si     0.257050000000     0.057050000000     0.076800000000     0          
T        Si     0.175600000000     0.057150000000     0.025475000000     0          
T        Si     0.372350000000     0.057300000000     0.154875000000     0          
T        Si     0.331250000000     0.398500000000     0.066225000000     0          
T        Si     0.257050000000     0.442950000000     0.076800000000     0          
T        Si     0.175600000000     0.442850000000     0.025475000000     0          
T        Si     0.372350000000     0.442700000000     0.154875000000     0          
T        Si     0.168750000000     0.398500000000     0.183775000000     0          
T        Si     0.242950000000     0.442950000000     0.173200000000     0          
T        Si     0.324400000000     0.442850000000     0.224525000000     0          
T        Si     0.127650000000     0.442700000000     0.095125000000     0          
T        Si     0.418750000000     0.351500000000     0.433775000000     0          
T        Si     0.492950000000     0.307050000000     0.423200000000     0          
T        Si     0.074400000000     0.307150000000     0.474525000000     0          
T        Si     0.377650000000     0.307300000000     0.345125000000     0          
T        Si     0.081250000000     0.351500000000     0.316225000000     0          
T        Si     0.007050000000     0.307050000000     0.326800000000     0          
T        Si     0.425600000000     0.307150000000     0.275475000000     0          
T        Si     0.122350000000     0.307300000000     0.404875000000     0          
T        Si     0.081250000000     0.148500000000     0.316225000000     0          
T        Si     0.007050000000     0.192950000000     0.326800000000     0          
T        Si     0.425600000000     0.192850000000     0.275475000000     0          
T        Si     0.122350000000     0.192700000000     0.404875000000     0          
T        Si     0.418750000000     0.148500000000     0.433775000000     0          
T        Si     0.492950000000     0.192950000000     0.423200000000     0          
T        Si     0.074400000000     0.192850000000     0.474525000000     0          
T        Si     0.377650000000     0.192700000000     0.345125000000     0          
T        Si     0.168750000000     0.101500000000     0.433775000000     0          
T        Si     0.242950000000     0.057050000000     0.423200000000     0          
T        Si     0.324400000000     0.057150000000     0.474525000000     0          
T        Si     0.127650000000     0.057300000000     0.345125000000     0          
T        Si     0.331250000000     0.101500000000     0.316225000000     0          
T        Si     0.257050000000     0.057050000000     0.326800000000     0          
T        Si     0.175600000000     0.057150000000     0.275475000000     0          
T        Si     0.372350000000     0.057300000000     0.404875000000     0          
T        Si     0.331250000000     0.398500000000     0.316225000000     0          
T        Si     0.257050000000     0.442950000000     0.326800000000     0          
T        Si     0.175600000000     0.442850000000     0.275475000000     0          
T        Si     0.372350000000     0.442700000000     0.404875000000     0          
T        Si     0.168750000000     0.398500000000     0.433775000000     0          
T        Si     0.242950000000     0.442950000000     0.423200000000     0          
T        Si     0.324400000000     0.442850000000     0.474525000000     0          
T        Si     0.127650000000     0.442700000000     0.345125000000     0          
T        Si     0.418750000000     0.351500000000     0.683775000000     0          
T        Si     0.492950000000     0.307050000000     0.673200000000     0          
T        Si     0.074400000000     0.307150000000     0.724525000000     0          
T        Si     0.377650000000     0.307300000000     0.595125000000     0          
T        Si     0.081250000000     0.351500000000     0.566225000000     0          
T        Si     0.007050000000     0.307050000000     0.576800000000     0          
T        Si     0.425600000000     0.307150000000     0.525475000000     0          
T        Si     0.122350000000     0.307300000000     0.654875000000     0          
T        Si     0.081250000000     0.148500000000     0.566225000000     0          
T        Si     0.007050000000     0.192950000000     0.576800000000     0          
T        Si     0.425600000000     0.192850000000     0.525475000000     0          
T        Si     0.122350000000     0.192700000000     0.654875000000     0          
T        Si     0.418750000000     0.148500000000     0.683775000000     0          
T        Si     0.492950000000     0.192950000000     0.673200000000     0          
T        Si     0.074400000000     0.192850000000     0.724525000000     0          
T        Si     0.377650000000     0.192700000000     0.595125000000     0          
T        Si     0.168750000000     0.101500000000     0.683775000000     0          
T        Si     0.242950000000     0.057050000000     0.673200000000     0          
T        Si     0.324400000000     0.057150000000     0.724525000000     0          
T        Si     0.127650000000     0.057300000000     0.595125000000     0          
T        Si     0.331250000000     0.101500000000     0.566225000000     0          
T        Si     0.257050000000     0.057050000000     0.576800000000     0          
T        Si     0.175600000000     0.057150000000     0.525475000000     0          
T        Si     0.372350000000     0.057300000000     0.654875000000     0          
T        Si     0.331250000000     0.398500000000     0.566225000000     0          
T        Si     0.257050000000     0.442950000000     0.576800000000     0          
T        Si     0.175600000000     0.442850000000     0.525475000000     0          
T        Si     0.372350000000     0.442700000000     0.654875000000     0          
T        Si     0.168750000000     0.398500000000     0.683775000000     0          
T        Si     0.242950000000     0.442950000000     0.673200000000     0          
T        Si     0.324400000000     0.442850000000     0.724525000000     0          
T        Si     0.127650000000     0.442700000000     0.595125000000     0          
T        Si     0.418750000000     0.351500000000     0.933775000000     0          
T        Si     0.492950000000     0.307050000000     0.923200000000     0          
T        Si     0.074400000000     0.307150000000     0.974525000000     0          
T        Si     0.377650000000     0.307300000000     0.845125000000     0          
T        Si     0.081250000000     0.351500000000     0.816225000000     0          
T        Si     0.007050000000     0.307050000000     0.826800000000     0          
T        Si     0.425600000000     0.307150000000     0.775475000000     0          
T        Si     0.122350000000     0.307300000000     0.904875000000     0          
T        Si     0.081250000000     0.148500000000     0.816225000000     0          
T        Si     0.007050000000     0.192950000000     0.826800000000     0          
T        Si     0.425600000000     0.192850000000     0.775475000000     0          
T        Si     0.122350000000     0.192700000000     0.904875000000     0          
T        Si     0.418750000000     0.148500000000     0.933775000000     0          
T        Si     0.492950000000     0.192950000000     0.923200000000     0          
T        Si     0.074400000000     0.192850000000     0.974525000000     0          
T        Si     0.377650000000     0.192700000000     0.845125000000     0          
T        Si     0.168750000000     0.101500000000     0.933775000000     0          
T        Si     0.242950000000     0.057050000000     0.923200000000     0          
T        Si     0.324400000000     0.057150000000     0.974525000000     0          
T        Si     0.127650000000     0.057300000000     0.845125000000     0          
T        Si     0.331250000000     0.101500000000     0.816225000000     0          
T        Si     0.257050000000     0.057050000000     0.826800000000     0          
T        Si     0.175600000000     0.057150000000     0.775475000000     0          
T        Si     0.372350000000     0.057300000000     0.904875000000     0          
T        Si     0.331250000000     0.398500000000     0.816225000000     0          
T        Si     0.257050000000     0.442950000000     0.826800000000     0          
T        Si     0.175600000000     0.442850000000     0.775475000000     0          
T        Si     0.372350000000     0.442700000000     0.904875000000     0          
T        Si     0.168750000000     0.398500000000     0.933775000000     0          
T        Si     0.242950000000     0.442950000000     0.923200000000     0          
T        Si     0.324400000000     0.442850000000     0.974525000000     0          
T        Si     0.127650000000     0.442700000000     0.845125000000     0          
T        Si     0.418750000000     0.851500000000     0.183775000000     0          
T        Si     0.492950000000     0.807050000000     0.173200000000     0          
T        Si     0.074400000000     0.807150000000     0.224525000000     0          
T        Si     0.377650000000     0.807300000000     0.095125000000     0          
T        Si     0.081250000000     0.851500000000     0.066225000000     0          
T        Si     0.007050000000     0.807050000000     0.076800000000     0          
T        Si     0.425600000000     0.807150000000     0.025475000000     0          
T        Si     0.122350000000     0.807300000000     0.154875000000     0          
T        Si     0.081250000000     0.648500000000     0.066225000000     0          
T        Si     0.007050000000     0.692950000000     0.076800000000     0          
T        Si     0.425600000000     0.692850000000     0.025475000000     0          
T        Si     0.122350000000     0.692700000000     0.154875000000     0          
T        Si     0.418750000000     0.648500000000     0.183775000000     0          
T        Si     0.492950000000     0.692950000000     0.173200000000     0          
T        Si     0.074400000000     0.692850000000     0.224525000000     0          
T        Si     0.377650000000     0.692700000000     0.095125000000     0          
T        Si     0.168750000000     0.601500000000     0.183775000000     0          
T        Si     0.242950000000     0.557050000000     0.173200000000     0          
T        Si     0.324400000000     0.557150000000     0.224525000000     0          
T        Si     0.127650000000     0.557300000000     0.095125000000     0          
T        Si     0.331250000000     0.601500000000     0.066225000000     0          
T        Si     0.257050000000     0.557050000000     0.076800000000     0          
T        Si     0.175600000000     0.557150000000     0.025475000000     0          
T        Si     0.372350000000     0.557300000000     0.154875000000     0          
T        Si     0.331250000000     0.898500000000     0.066225000000     0          
T        Si     0.257050000000     0.942950000000     0.076800000000     0          
T        Si     0.175600000000     0.942850000000     0.025475000000     0          
T        Si     0.372350000000     0.942700000000     0.154875000000     0          
T        Si     0.168750000000     0.898500000000     0.183775000000     0          
T        Si     0.242950000000     0.942950000000     0.173200000000     0          
T        Si     0.324400000000     0.942850000000     0.224525000000     0          
T        Si     0.127650000000     0.942700000000     0.095125000000     0          
T        Si     0.418750000000     0.851500000000     0.433775000000     0          
T        Si     0.492950000000     0.807050000000     0.423200000000     0          
T        Si     0.074400000000     0.807150000000     0.474525000000     0          
T        Si     0.377650000000     0.807300000000     0.345125000000     0          
T        Si     0.081250000000     0.851500000000     0.316225000000     0          
T        Si     0.007050000000     0.807050000000     0.326800000000     0          
T        Si     0.425600000000     0.807150000000     0.275475000000     0          
T        Si     0.122350000000     0.807300000000     0.404875000000     0          
T        Si     0.081250000000     0.648500000000     0.316225000000     0          
T        Si     0.007050000000     0.692950000000     0.326800000000     0          
T        Si     0.425600000000     0.692850000000     0.275475000000     0          
T        Si     0.122350000000     0.692700000000     0.404875000000     0          
T        Si     0.418750000000     0.648500000000     0.433775000000     0          
T        Si     0.492950000000     0.692950000000     0.423200000000     0          
T        Si     0.074400000000     0.692850000000     0.474525000000     0          
T        Si     0.377650000000     0.692700000000     0.345125000000     0          
T        Si     0.168750000000     0.601500000000     0.433775000000     0          
T        Si     0.242950000000     0.557050000000     0.423200000000     0          
T        Si     0.324400000000     0.557150000000     0.474525000000     0          
T        Si     0.127650000000     0.557300000000     0.345125000000     0          
T        Si     0.331250000000     0.601500000000     0.316225000000     0          
T        Si     0.257050000000     0.557050000000     0.326800000000     0          
T        Si     0.175600000000     0.557150000000     0.275475000000     0          
T        Si     0.372350000000     0.557300000000     0.404875000000     0          
T        Si     0.331250000000     0.898500000000     0.316225000000     0          
T        Si     0.257050000000     0.942950000000     0.326800000000     0          
T        Si     0.175600000000     0.942850000000     0.275475000000     0          
T        Si     0.372350000000     0.942700000000     0.404875000000     0          
T        Si     0.168750000000     0.898500000000     0.433775000000     0          
T        Si     0.242950000000     0.942950000000     0.423200000000     0          
T        Si     0.324400000000     0.942850000000     0.474525000000     0          
T        Si     0.127650000000     0.942700000000     0.345125000000     0          
T        Si     0.418750000000     0.851500000000     0.683775000000     0          
T        Si     0.492950000000     0.807050000000     0.673200000000     0          
T        Si     0.074400000000     0.807150000000     0.724525000000     0          
T        Si     0.377650000000     0.807300000000     0.595125000000     0          
T        Si     0.081250000000     0.851500000000     0.566225000000     0          
T        Si     0.007050000000     0.807050000000     0.576800000000     0          
T        Si     0.425600000000     0.807150000000     0.525475000000     0          
T        Si     0.122350000000     0.807300000000     0.654875000000     0          
T        Si     0.081250000000     0.648500000000     0.566225000000     0          
T        Si     0.007050000000     0.692950000000     0.576800000000     0          
T        Si     0.425600000000     0.692850000000     0.525475000000     0          
T        Si     0.122350000000     0.692700000000     0.654875000000     0          
T        Si     0.418750000000     0.648500000000     0.683775000000     0          
T        Si     0.492950000000     0.692950000000     0.673200000000     0          
T        Si     0.074400000000     0.692850000000     0.724525000000     0          
T        Si     0.377650000000     0.692700000000     0.595125000000     0          
T        Si     0.168750000000     0.601500000000     0.683775000000     0          
T        Si     0.242950000000     0.557050000000     0.673200000000     0          
T        Si     0.324400000000     0.557150000000     0.724525000000     0          
T        Si     0.127650000000     0.557300000000     0.595125000000     0          
T        Si     0.331250000000     0.601500000000     0.566225000000     0          
T        Si     0.257050000000     0.557050000000     0.576800000000     0          
T        Si     0.175600000000     0.557150000000     0.525475000000     0          
T        Si     0.372350000000     0.557300000000     0.654875000000     0          
T        Si     0.331250000000     0.898500000000     0.566225000000     0          
T        Si     0.257050000000     0.942950000000     0.576800000000     0          
T        Si     0.175600000000     0.942850000000     0.525475000000     0          
T        Si     0.372350000000     0.942700000000     0.654875000000     0          
T        Si     0.168750000000     0.898500000000     0.683775000000     0          
T        Si     0.242950000000     0.942950000000     0.673200000000     0          
T        Si     0.324400000000     0.942850000000     0.724525000000     0          
T        Si     0.127650000000     0.942700000000     0.595125000000     0          
T        Si     0.418750000000     0.851500000000     0.933775000000     0          
T        Si     0.492950000000     0.807050000000     0.923200000000     0          
T        Si     0.074400000000     0.807150000000     0.974525000000     0          
T        Si     0.377650000000     0.807300000000     0.845125000000     0          
T        Si     0.081250000000     0.851500000000     0.816225000000     0          
T        Si     0.007050000000     0.807050000000     0.826800000000     0          
T        Si     0.425600000000     0.807150000000     0.775475000000     0          
T        Si     0.122350000000     0.807300000000     0.904875000000     0          
T        Si     0.081250000000     0.648500000000     0.816225000000     0          
T        Si     0.007050000000     0.692950000000     0.826800000000     0          
T        Si     0.425600000000     0.692850000000     0.775475000000     0          
T        Si     0.122350000000     0.692700000000     0.904875000000     0          
T        Si     0.418750000000     0.648500000000     0.933775000000     0          
T        Si     0.492950000000     0.692950000000     0.923200000000     0          
T        Si     0.074400000000     0.692850000000     0.974525000000     0          
T        Si     0.377650000000     0.692700000000     0.845125000000     0          
T        Si     0.168750000000     0.601500000000     0.933775000000     0          
T        Si     0.242950000000     0.557050000000     0.923200000000     0          
T        Si     0.324400000000     0.557150000000     0.974525000000     0          
T        Si     0.127650000000     0.557300000000     0.845125000000     0          
T        Si     0.331250000000     0.601500000000     0.816225000000     0          
T        Si     0.257050000000     0.557050000000     0.826800000000     0          
T        Si     0.175600000000     0.557150000000     0.775475000000     0          
T        Si     0.372350000000     0.557300000000     0.904875000000     0          
T        Si     0.331250000000     0.898500000000     0.816225000000     0          
T        Si     0.257050000000     0.942950000000     0.826800000000     0          
T        Si     0.175600000000     0.942850000000     0.775475000000     0          
T        Si     0.372350000000     0.942700000000     0.904875000000     0          
T        Si     0.168750000000     0.898500000000     0.933775000000     0          
T        Si     0.242950000000     0.942950000000     0.923200000000     0          
T        Si     0.324400000000     0.942850000000     0.974525000000     0          
T        Si     0.127650000000     0.942700000000     0.845125000000     0          
T        Si     0.918750000000     0.351500000000     0.183775000000     0          
T        Si     0.992950000000     0.307050000000     0.173200000000     0          
T        Si     0.574400000000     0.307150000000     0.224525000000     0          
T        Si     0.877650000000     0.307300000000     0.095125000000     0          
T        Si     0.581250000000     0.351500000000     0.066225000000     0          
T        Si     0.507050000000     0.307050000000     0.076800000000     0          
T        Si     0.925600000000     0.307150000000     0.025475000000     0          
T        Si     0.622350000000     0.307300000000     0.154875000000     0          
T        Si     0.581250000000     0.148500000000     0.066225000000     0          
T        Si     0.507050000000     0.192950000000     0.076800000000     0          
T        Si     0.925600000000     0.192850000000     0.025475000000     0          
T        Si     0.622350000000     0.192700000000     0.154875000000     0          
T        Si     0.918750000000     0.148500000000     0.183775000000     0          
T        Si     0.992950000000     0.192950000000     0.173200000000     0          
T        Si     0.574400000000     0.192850000000     0.224525000000     0          
T        Si     0.877650000000     0.192700000000     0.095125000000     0          
T        Si     0.668750000000     0.101500000000     0.183775000000     0          
T        Si     0.742950000000     0.057050000000     0.173200000000     0          
T        Si     0.824400000000     0.057150000000     0.224525000000     0          
T        Si     0.627650000000     0.057300000000     0.095125000000     0          
T        Si     0.831250000000     0.101500000000     0.066225000000     0          
T        Si     0.757050000000     0.057050000000     0.076800000000     0          
T        Si     0.675600000000     0.057150000000     0.025475000000     0          
T        Si     0.872350000000     0.057300000000     0.154875000000     0          
T        Si     0.831250000000     0.398500000000     0.066225000000     0          
T        Si     0.757050000000     0.442950000000     0.076800000000     0          
T        Si     0.675600000000     0.442850000000     0.025475000000     0          
T        Si     0.872350000000     0.442700000000     0.154875000000     0          
T        Si     0.668750000000     0.398500000000     0.183775000000     0          
T        Si     0.742950000000     0.442950000000     0.173200000000     0          
T        Si     0.824400000000     0.442850000000     0.224525000000     0          
T        Si     0.627650000000     0.442700000000     0.095125000000     0          
T        Si     0.918750000000     0.351500000000     0.433775000000     0          
T        Si     0.992950000000     0.307050000000     0.423200000000     0          
T        Si     0.574400000000     0.307150000000     0.474525000000     0          
T        Si     0.877650000000     0.307300000000     0.345125000000     0          
T        Si     0.581250000000     0.351500000000     0.316225000000     0          
T        Si     0.507050000000     0.307050000000     0.326800000000     0          
T        Si     0.925600000000     0.307150000000     0.275475000000     0          
T        Si     0.622350000000     0.307300000000     0.404875000000     0          
T        Si     0.581250000000     0.148500000000     0.316225000000     0          
T        Si     0.507050000000     0.192950000000     0.326800000000     0          
T        Si     0.925600000000     0.192850000000     0.275475000000     0          
T        Si     0.622350000000     0.192700000000     0.404875000000     0          
T        Si     0.918750000000     0.148500000000     0.433775000000     0          
T        Si     0.992950000000     0.192950000000     0.423200000000     0          
T        Si     0.574400000000     0.192850000000     0.474525000000     0          
T        Si     0.877650000000     0.192700000000     0.345125000000     0          
T        Si     0.668750000000     0.101500000000     0.433775000000     0          
T        Si     0.742950000000     0.057050000000     0.423200000000     0          
T        Si     0.824400000000     0.057150000000     0.474525000000     0          
T        Si     0.627650000000     0.057300000000     0.345125000000     0          
T        Si     0.831250000000     0.101500000000     0.316225000000     0          
T        Si     0.757050000000     0.057050000000     0.326800000000     0          
T        Si     0.675600000000     0.057150000000     0.275475000000     0          
T        Si     0.872350000000     0.057300000000     0.404875000000     0          
T        Si     0.831250000000     0.398500000000     0.316225000000     0          
T        Si     0.757050000000     0.442950000000     0.326800000000     0          
T        Si     0.675600000000     0.442850000000     0.275475000000     0          
T        Si     0.872350000000     0.442700000000     0.404875000000     0          
T        Si     0.668750000000     0.398500000000     0.433775000000     0          
T        Si     0.742950000000     0.442950000000     0.423200000000     0          
T        Si     0.824400000000     0.442850000000     0.474525000000     0          
T        Si     0.627650000000     0.442700000000     0.345125000000     0          
T        Si     0.918750000000     0.351500000000     0.683775000000     0          
T        Si     0.992950000000     0.307050000000     0.673200000000     0          
T        Si     0.574400000000     0.307150000000     0.724525000000     0          
T        Si     0.877650000000     0.307300000000     0.595125000000     0          
T        Si     0.581250000000     0.351500000000     0.566225000000     0          
T        Si     0.507050000000     0.307050000000     0.576800000000     0          
T        Si     0.925600000000     0.307150000000     0.525475000000     0          
T        Si     0.622350000000     0.307300000000     0.654875000000     0          
T        Si     0.581250000000     0.148500000000     0.566225000000     0          
T        Si     0.507050000000     0.192950000000     0.576800000000     0          
T        Si     0.925600000000     0.192850000000     0.525475000000     0          
T        Si     0.622350000000     0.192700000000     0.654875000000     0          
T        Si     0.918750000000     0.148500000000     0.683775000000     0          
T        Si     0.992950000000     0.192950000000     0.673200000000     0          
T        Si     0.574400000000     0.192850000000     0.724525000000     0          
T        Si     0.877650000000     0.192700000000     0.595125000000     0          
T        Si     0.668750000000     0.101500000000     0.683775000000     0          
T        Si     0.742950000000     0.057050000000     0.673200000000     0          
T        Si     0.824400000000     0.057150000000     0.724525000000     0          
T        Si     0.627650000000     0.057300000000     0.595125000000     0          
T        Si     0.831250000000     0.101500000000     0.566225000000     0          
T        Si     0.757050000000     0.057050000000     0.576800000000     0          
T        Si     0.675600000000     0.057150000000     0.525475000000     0          
T        Si     0.872350000000     0.057300000000     0.654875000000     0          
T        Si     0.831250000000     0.398500000000     0.566225000000     0          
T        Si     0.757050000000     0.442950000000     0.576800000000     0          
T        Si     0.675600000000     0.442850000000     0.525475000000     0          
T        Si     0.872350000000     0.442700000000     0.654875000000     0          
T        Si     0.668750000000     0.398500000000     0.683775000000     0          
T        Si     0.742950000000     0.442950000000     0.673200000000     0          
T        Si     0.824400000000     0.442850000000     0.724525000000     0          
T        Si     0.627650000000     0.442700000000     0.595125000000     0          
T        Si     0.918750000000     0.351500000000     0.933775000000     0          
T        Si     0.992950000000     0.307050000000     0.923200000000     0          
T        Si     0.574400000000     0.307150000000     0.974525000000     0          
T        Si     0.877650000000     0.307300000000     0.845125000000     0          
T        Si     0.581250000000     0.351500000000     0.816225000000     0          
T        Si     0.507050000000     0.307050000000     0.826800000000     0          
T        Si     0.925600000000     0.307150000000     0.775475000000     0          
T        Si     0.622350000000     0.307300000000     0.904875000000     0          
T        Si     0.581250000000     0.148500000000     0.816225000000     0          
T        Si     0.507050000000     0.192950000000     0.826800000000     0          
T        Si     0.925600000000     0.192850000000     0.775475000000     0          
T        Si     0.622350000000     0.192700000000     0.904875000000     0          
T        Si     0.918750000000     0.148500000000     0.933775000000     0          
T        Si     0.992950000000     0.192950000000     0.923200000000     0          
T        Si     0.574400000000     0.192850000000     0.974525000000     0          
T        Si     0.877650000000     0.192700000000     0.845125000000     0          
T        Si     0.668750000000     0.101500000000     0.933775000000     0          
T        Si     0.742950000000     0.057050000000     0.923200000000     0          
T        Si     0.824400000000     0.057150000000     0.974525000000     0          
T        Si     0.627650000000     0.057300000000     0.845125000000     0          
T        Si     0.831250000000     0.101500000000     0.816225000000     0          
T        Si     0.757050000000     0.057050000000     0.826800000000     0          
T        Si     0.675600000000     0.057150000000     0.775475000000     0          
T        Si     0.872350000000     0.057300000000     0.904875000000     0          
T        Si     0.831250000000     0.398500000000     0.816225000000     0          
T        Si     0.757050000000     0.442950000000     0.826800000000     0          
T        Si     0.675600000000     0.442850000000     0.775475000000     0          
T        Si     0.872350000000     0.442700000000     0.904875000000     0          
T        Si     0.668750000000     0.398500000000     0.933775000000     0          
T        Si     0.742950000000     0.442950000000     0.923200000000     0          
T        Si     0.824400000000     0.442850000000     0.974525000000     0          
T        Si     0.627650000000     0.442700000000     0.845125000000     0          
T        Si     0.918750000000     0.851500000000     0.183775000000     0          
T        Si     0.992950000000     0.807050000000     0.173200000000     0          
T        Si     0.574400000000     0.807150000000     0.224525000000     0          
T        Si     0.877650000000     0.807300000000     0.095125000000     0          
T        Si     0.581250000000     0.851500000000     0.066225000000     0          
T        Si     0.507050000000     0.807050000000     0.076800000000     0          
T        Si     0.925600000000     0.807150000000     0.025475000000     0          
T        Si     0.622350000000     0.807300000000     0.154875000000     0          
T        Si     0.581250000000     0.648500000000     0.066225000000     0          
T        Si     0.507050000000     0.692950000000     0.076800000000     0          
T        Si     0.925600000000     0.692850000000     0.025475000000     0          
T        Si     0.622350000000     0.692700000000     0.154875000000     0          
T        Si     0.918750000000     0.648500000000     0.183775000000     0          
T        Si     0.992950000000     0.692950000000     0.173200000000     0          
T        Si     0.574400000000     0.692850000000     0.224525000000     0          
T        Si     0.877650000000     0.692700000000     0.095125000000     0          
T        Si     0.668750000000     0.601500000000     0.183775000000     0          
T        Si     0.742950000000     0.557050000000     0.173200000000     0          
T        Si     0.824400000000     0.557150000000     0.224525000000     0          
T        Si     0.627650000000     0.557300000000     0.095125000000     0          
T        Si     0.831250000000     0.601500000000     0.066225000000     0          
T        Si     0.757050000000     0.557050000000     0.076800000000     0          
T        Si     0.675600000000     0.557150000000     0.025475000000     0          
T        Si     0.872350000000     0.557300000000     0.154875000000     0          
T        Si     0.831250000000     0.898500000000     0.066225000000     0          
T        Si     0.757050000000     0.942950000000     0.076800000000     0          
T        Si     0.675600000000     0.942850000000     0.025475000000     0          
T        Si     0.872350000000     0.942700000000     0.154875000000     0          
T        Si     0.668750000000     0.898500000000     0.183775000000     0          
T        Si     0.742950000000     0.942950000000     0.173200000000     0          
T        Si     0.824400000000     0.942850000000     0.224525000000     0          
T        Si     0.627650000000     0.942700000000     0.095125000000     0          
T        Si     0.918750000000     0.851500000000     0.433775000000     0          
T        Si     0.992950000000     0.807050000000     0.423200000000     0          
T        Si     0.574400000000     0.807150000000     0.474525000000     0          
T        Si     0.877650000000     0.807300000000     0.345125000000     0          
T        Si     0.581250000000     0.851500000000     0.316225000000     0          
T        Si     0.507050000000     0.807050000000     0.326800000000     0          
T        Si     0.925600000000     0.807150000000     0.275475000000     0          
T        Si     0.622350000000     0.807300000000     0.404875000000     0          
T        Si     0.581250000000     0.648500000000     0.316225000000     0          
T        Si     0.507050000000     0.692950000000     0.326800000000     0          
T        Si     0.925600000000     0.692850000000     0.275475000000     0          
T        Si     0.622350000000     0.692700000000     0.404875000000     0          
T        Si     0.918750000000     0.648500000000     0.433775000000     0          
T        Si     0.992950000000     0.692950000000     0.423200000000     0          
T        Si     0.574400000000     0.692850000000     0.474525000000     0          
T        Si     0.877650000000     0.692700000000     0.345125000000     0          
T        Si     0.668750000000     0.601500000000     0.433775000000     0          
T        Si     0.742950000000     0.557050000000     0.423200000000     0          
T        Si     0.824400000000     0.557150000000     0.474525000000     0          
T        Si     0.627650000000     0.557300000000     0.345125000000     0          
T        Si     0.831250000000     0.601500000000     0.316225000000     0          
T        Si     0.757050000000     0.557050000000     0.326800000000     0          
T        Si     0.675600000000     0.557150000000     0.275475000000     0          
T        Si     0.872350000000     0.557300000000     0.404875000000     0          
T        Si     0.831250000000     0.898500000000     0.316225000000     0          
T        Si     0.757050000000     0.942950000000     0.326800000000     0          
T        Si     0.675600000000     0.942850000000     0.275475000000     0          
T        Si     0.872350000000     0.942700000000     0.404875000000     0          
T        Si     0.668750000000     0.898500000000     0.433775000000     0          
T        Si     0.742950000000     0.942950000000     0.423200000000     0          
T        Si     0.824400000000     0.942850000000     0.474525000000     0          
T        Si     0.627650000000     0.942700000000     0.345125000000     0          
T        Si     0.918750000000     0.851500000000     0.683775000000     0          
T        Si     0.992950000000     0.807050000000     0.673200000000     0          
T        Si     0.574400000000     0.807150000000     0.724525000000     0          
T        Si     0.877650000000     0.807300000000     0.595125000000     0          
T        Si     0.581250000000     0.851500000000     0.566225000000     0          
T        Si     0.507050000000     0.807050000000     0.576800000000     0          
T        Si     0.925600000000     0.807150000000     0.525475000000     0          
T        Si     0.622350000000     0.807300000000     0.654875000000     0          
T        Si     0.581250000000     0.648500000000     0.566225000000     0          
T        Si     0.507050000000     0.692950000000     0.576800000000     0          
T        Si     0.925600000000     0.692850000000     0.525475000000     0          
T        Si     0.622350000000     0.692700000000     0.654875000000     0          
T        Si     0.918750000000     0.648500000000     0.683775000000     0          
T        Si     0.992950000000     0.692950000000     0.673200000000     0          
T        Si     0.574400000000     0.692850000000     0.724525000000     0          
T        Si     0.877650000000     0.692700000000     0.595125000000     0          
T        Si     0.668750000000     0.601500000000     0.683775000000     0          
T        Si     0.742950000000     0.557050000000     0.673200000000     0          
T        Si     0.824400000000     0.557150000000     0.724525000000     0          
T        Si     0.627650000000     0.557300000000     0.595125000000     0          
T        Si     0.831250000000     0.601500000000     0.566225000000     0          
T        Si     0.757050000000     0.557050000000     0.576800000000     0          
T        Si     0.675600000000     0.557150000000     0.525475000000     0          
T        Si     0.872350000000     0.557300000000     0.654875000000     0          
T        Si     0.831250000000     0.898500000000     0.566225000000     0          
T        Si     0.757050000000     0.942950000000     0.576800000000     0          
T        Si     0.675600000000     0.942850000000     0.525475000000     0          
T        Si     0.872350000000     0.942700000000     0.654875000000     0          
T        Si     0.668750000000     0.898500000000     0.683775000000     0          
T        Si     0.742950000000     0.942950000000     0.673200000000     0          
T        Si     0.824400000000     0.942850000000     0.724525000000     0          
T        Si     0.627650000000     0.942700000000     0.595125000000     0          
T        Si     0.918750000000     0.851500000000     0.933775000000     0          
T        Si     0.992950000000     0.807050000000     0.923200000000     0          
T        Si     0.574400000000     0.807150000000     0.974525000000     0          
T        Si     0.877650000000     0.807300000000     0.845125000000     0          
T        Si     0.581250000000     0.851500000000     0.816225000000     0          
T        Si     0.507050000000     0.807050000000     0.826800000000     0          
T        Si     0.925600000000     0.807150000000     0.775475000000     0          
T        Si     0.622350000000     0.807300000000     0.904875000000     0          
T        Si     0.581250000000     0.648500000000     0.816225000000     0          
T        Si     0.507050000000     0.692950000000     0.826800000000     0          
T        Si     0.925600000000     0.692850000000     0.775475000000     0          
T        Si     0.622350000000     0.692700000000     0.904875000000     0          
T        Si     0.918750000000     0.648500000000     0.933775000000     0          
T        Si     0.992950000000     0.692950000000     0.923200000000     0          
T        Si     0.574400000000     0.692850000000     0.974525000000     0          
T        Si     0.877650000000     0.692700000000     0.845125000000     0          
T        Si     0.668750000000     0.601500000000     0.933775000000     0          
T        Si     0.742950000000     0.557050000000     0.923200000000     0          
T        Si     0.824400000000     0.557150000000     0.974525000000     0          
T        Si     0.627650000000     0.557300000000     0.845125000000     0          
T        Si     0.831250000000     0.601500000000     0.816225000000     0          
T        Si     0.757050000000     0.557050000000     0.826800000000     0          
T        Si     0.675600000000     0.557150000000     0.775475000000     0          
T        Si     0.872350000000     0.557300000000     0.904875000000     0          
T        Si     0.831250000000     0.898500000000     0.816225000000     0          
T        Si     0.757050000000     0.942950000000     0.826800000000     0          
T        Si     0.675600000000     0.942850000000     0.775475000000     0          
T        Si     0.872350000000     0.942700000000     0.904875000000     0          
T        Si     0.668750000000     0.898500000000     0.933775000000     0          
T        Si     0.742950000000     0.942950000000     0.923200000000     0          
T        Si     0.824400000000     0.942850000000     0.974525000000     0          
T        Si     0.627650000000     0.942700000000     0.845125000000     0          
O        O      0.030450000000     0.312850000000     0.210450000000     0          
O        O      0.479550000000     0.250000000000     0.171225000000     0          
O        O      0.461850000000     0.342400000000     0.186125000000     0          
O        O      0.000000000000     0.323400000000     0.125000000000     0          
O        O      0.090000000000     0.341700000000     0.017500000000     0          
O        O      0.084750000000     0.250000000000     0.237200000000     0          
O        O      0.092500000000     0.323600000000     0.183350000000     0          
O        O      0.341800000000     0.342050000000     0.081300000000     0          
O        O      0.395000000000     0.313850000000     0.147850000000     0          
O        O      0.366400000000     0.250000000000     0.084700000000     0          
O        O      0.469550000000     0.312850000000     0.039550000000     0          
O        O      0.020450000000     0.250000000000     0.078775000000     0          
O        O      0.038150000000     0.342400000000     0.063875000000     0          
O        O      0.410000000000     0.341700000000     0.232500000000     0          
O        O      0.415250000000     0.250000000000     0.012800000000     0          
O        O      0.407500000000     0.323600000000     0.066650000000     0          
O        O      0.158200000000     0.342050000000     0.168700000000     0          
O        O      0.105000000000     0.313850000000     0.102150000000     0          
O        O      0.133600000000     0.250000000000     0.165300000000     0          
O        O      0.469550000000     0.187150000000     0.039550000000     0          
O        O      0.038150000000     0.157600000000     0.063875000000     0          
O        O      0.000000000000     0.176600000000     0.125000000000     0          
O        O      0.410000000000     0.158300000000     0.232500000000     0          
O        O      0.407500000000     0.176400000000     0.066650000000     0          
O        O      0.158200000000     0.157950000000     0.168700000000     0          
O        O      0.105000000000     0.186150000000     0.102150000000     0          
O        O      0.030450000000     0.187150000000     0.210450000000     0          
O        O      0.461850000000     0.157600000000     0.186125000000     0          
O        O      0.090000000000     0.158300000000     0.017500000000     0          
O        O      0.092500000000     0.176400000000     0.183350000000     0          
O        O      0.341800000000     0.157950000000     0.081300000000     0          
O        O      0.395000000000     0.186150000000     0.147850000000     0          
O        O      0.280450000000     0.062850000000     0.210450000000     0          
O        O      0.229550000000     0.000000000000     0.171225000000     0          
O        O      0.211850000000     0.092400000000     0.186125000000     0          
O        O      0.250000000000     0.073400000000     0.125000000000     0          
O        O      0.340000000000     0.091700000000     0.017500000000     0          
O        O      0.334750000000     0.000000000000     0.237200000000     0          
O        O      0.342500000000     0.073600000000     0.183350000000     0          
O        O      0.091800000000     0.092050000000     0.081300000000     0          
O        O      0.145000000000     0.063850000000     0.147850000000     0          
O        O      0.116400000000     0.000000000000     0.084700000000     0          
O        O      0.219550000000     0.062850000000     0.039550000000     0          
O        O      0.270450000000     0.000000000000     0.078775000000     0          
O        O      0.288150000000     0.092400000000     0.063875000000     0          
O        O      0.160000000000     0.091700000000     0.232500000000     0          
O        O      0.165250000000     0.000000000000     0.012800000000     0          
O        O      0.157500000000     0.073600000000     0.066650000000     0          
O        O      0.408200000000     0.092050000000     0.168700000000     0          
O        O      0.355000000000     0.063850000000     0.102150000000     0          
O        O      0.383600000000     0.000000000000     0.165300000000     0          
O        O      0.219550000000     0.437150000000     0.039550000000     0          
O        O      0.288150000000     0.407600000000     0.063875000000     0          
O        O      0.250000000000     0.426600000000     0.125000000000     0          
O        O      0.160000000000     0.408300000000     0.232500000000     0          
O        O      0.157500000000     0.426400000000     0.066650000000     0          
O        O      0.408200000000     0.407950000000     0.168700000000     0          
O        O      0.355000000000     0.436150000000     0.102150000000     0          
O        O      0.280450000000     0.437150000000     0.210450000000     0          
O        O      0.211850000000     0.407600000000     0.186125000000     0          
O        O      0.340000000000     0.408300000000     0.017500000000     0          
O        O      0.342500000000     0.426400000000     0.183350000000     0          
O        O      0.091800000000     0.407950000000     0.081300000000     0          
O        O      0.145000000000     0.436150000000     0.147850000000     0          
O        O      0.030450000000     0.312850000000     0.460450000000     0          
O        O      0.479550000000     0.250000000000     0.421225000000     0          
O        O      0.461850000000     0.342400000000     0.436125000000     0          
O        O      0.000000000000     0.323400000000     0.375000000000     0          
O        O      0.090000000000     0.341700000000     0.267500000000     0          
O        O      0.084750000000     0.250000000000     0.487200000000     0          
O        O      0.092500000000     0.323600000000     0.433350000000     0          
O        O      0.341800000000     0.342050000000     0.331300000000     0          
O        O      0.395000000000     0.313850000000     0.397850000000     0          
O        O      0.366400000000     0.250000000000     0.334700000000     0          
O        O      0.469550000000     0.312850000000     0.289550000000     0          
O        O      0.020450000000     0.250000000000     0.328775000000     0          
O        O      0.038150000000     0.342400000000     0.313875000000     0          
O        O      0.410000000000     0.341700000000     0.482500000000     0          
O        O      0.415250000000     0.250000000000     0.262800000000     0          
O        O      0.407500000000     0.323600000000     0.316650000000     0          
O        O      0.158200000000     0.342050000000     0.418700000000     0          
O        O      0.105000000000     0.313850000000     0.352150000000     0          
O        O      0.133600000000     0.250000000000     0.415300000000     0          
O        O      0.469550000000     0.187150000000     0.289550000000     0          
O        O      0.038150000000     0.157600000000     0.313875000000     0          
O        O      0.000000000000     0.176600000000     0.375000000000     0          
O        O      0.410000000000     0.158300000000     0.482500000000     0          
O        O      0.407500000000     0.176400000000     0.316650000000     0          
O        O      0.158200000000     0.157950000000     0.418700000000     0          
O        O      0.105000000000     0.186150000000     0.352150000000     0          
O        O      0.030450000000     0.187150000000     0.460450000000     0          
O        O      0.461850000000     0.157600000000     0.436125000000     0          
O        O      0.090000000000     0.158300000000     0.267500000000     0          
O        O      0.092500000000     0.176400000000     0.433350000000     0          
O        O      0.341800000000     0.157950000000     0.331300000000     0          
O        O      0.395000000000     0.186150000000     0.397850000000     0          
O        O      0.280450000000     0.062850000000     0.460450000000     0          
O        O      0.229550000000     0.000000000000     0.421225000000     0          
O        O      0.211850000000     0.092400000000     0.436125000000     0          
O        O      0.250000000000     0.073400000000     0.375000000000     0          
O        O      0.340000000000     0.091700000000     0.267500000000     0          
O        O      0.334750000000     0.000000000000     0.487200000000     0          
O        O      0.342500000000     0.073600000000     0.433350000000     0          
O        O      0.091800000000     0.092050000000     0.331300000000     0          
O        O      0.145000000000     0.063850000000     0.397850000000     0          
O        O      0.116400000000     0.000000000000     0.334700000000     0          
O        O      0.219550000000     0.062850000000     0.289550000000     0          
O        O      0.270450000000     0.000000000000     0.328775000000     0          
O        O      0.288150000000     0.092400000000     0.313875000000     0          
O        O      0.160000000000     0.091700000000     0.482500000000     0          
O        O      0.165250000000     0.000000000000     0.262800000000     0          
O        O      0.157500000000     0.073600000000     0.316650000000     0          
O        O      0.408200000000     0.092050000000     0.418700000000     0          
O        O      0.355000000000     0.063850000000     0.352150000000     0          
O        O      0.383600000000     0.000000000000     0.415300000000     0          
O        O      0.219550000000     0.437150000000     0.289550000000     0          
O        O      0.288150000000     0.407600000000     0.313875000000     0          
O        O      0.250000000000     0.426600000000     0.375000000000     0          
O        O      0.160000000000     0.408300000000     0.482500000000     0          
O        O      0.157500000000     0.426400000000     0.316650000000     0          
O        O      0.408200000000     0.407950000000     0.418700000000     0          
O        O      0.355000000000     0.436150000000     0.352150000000     0          
O        O      0.280450000000     0.437150000000     0.460450000000     0          
O        O      0.211850000000     0.407600000000     0.436125000000     0          
O        O      0.340000000000     0.408300000000     0.267500000000     0          
O        O      0.342500000000     0.426400000000     0.433350000000     0          
O        O      0.091800000000     0.407950000000     0.331300000000     0          
O        O      0.145000000000     0.436150000000     0.397850000000     0          
O        O      0.030450000000     0.312850000000     0.710450000000     0          
O        O      0.479550000000     0.250000000000     0.671225000000     0          
O        O      0.461850000000     0.342400000000     0.686125000000     0          
O        O      0.000000000000     0.323400000000     0.625000000000     0          
O        O      0.090000000000     0.341700000000     0.517500000000     0          
O        O      0.084750000000     0.250000000000     0.737200000000     0          
O        O      0.092500000000     0.323600000000     0.683350000000     0          
O        O      0.341800000000     0.342050000000     0.581300000000     0          
O        O      0.395000000000     0.313850000000     0.647850000000     0          
O        O      0.366400000000     0.250000000000     0.584700000000     0          
O        O      0.469550000000     0.312850000000     0.539550000000     0          
O        O      0.020450000000     0.250000000000     0.578775000000     0          
O        O      0.038150000000     0.342400000000     0.563875000000     0          
O        O      0.410000000000     0.341700000000     0.732500000000     0          
O        O      0.415250000000     0.250000000000     0.512800000000     0          
O        O      0.407500000000     0.323600000000     0.566650000000     0          
O        O      0.158200000000     0.342050000000     0.668700000000     0          
O        O      0.105000000000     0.313850000000     0.602150000000     0          
O        O      0.133600000000     0.250000000000     0.665300000000     0          
O        O      0.469550000000     0.187150000000     0.539550000000     0          
O        O      0.038150000000     0.157600000000     0.563875000000     0          
O        O      0.000000000000     0.176600000000     0.625000000000     0          
O        O      0.410000000000     0.158300000000     0.732500000000     0          
O        O      0.407500000000     0.176400000000     0.566650000000     0          
O        O      0.158200000000     0.157950000000     0.668700000000     0          
O        O      0.105000000000     0.186150000000     0.602150000000     0          
O        O      0.030450000000     0.187150000000     0.710450000000     0          
O        O      0.461850000000     0.157600000000     0.686125000000     0          
O        O      0.090000000000     0.158300000000     0.517500000000     0          
O        O      0.092500000000     0.176400000000     0.683350000000     0          
O        O      0.341800000000     0.157950000000     0.581300000000     0          
O        O      0.395000000000     0.186150000000     0.647850000000     0          
O        O      0.280450000000     0.062850000000     0.710450000000     0          
O        O      0.229550000000     0.000000000000     0.671225000000     0          
O        O      0.211850000000     0.092400000000     0.686125000000     0          
O        O      0.250000000000     0.073400000000     0.625000000000     0          
O        O      0.340000000000     0.091700000000     0.517500000000     0          
O        O      0.334750000000     0.000000000000     0.737200000000     0          
O        O      0.342500000000     0.073600000000     0.683350000000     0          
O        O      0.091800000000     0.092050000000     0.581300000000     0          
O        O      0.145000000000     0.063850000000     0.647850000000     0          
O        O      0.116400000000     0.000000000000     0.584700000000     0          
O        O      0.219550000000     0.062850000000     0.539550000000     0          
O        O      0.270450000000     0.000000000000     0.578775000000     0          
O        O      0.288150000000     0.092400000000     0.563875000000     0          
O        O      0.160000000000     0.091700000000     0.732500000000     0          
O        O      0.165250000000     0.000000000000     0.512800000000     0          
O        O      0.157500000000     0.073600000000     0.566650000000     0          
O        O      0.408200000000     0.092050000000     0.668700000000     0          
O        O      0.355000000000     0.063850000000     0.602150000000     0          
O        O      0.383600000000     0.000000000000     0.665300000000     0          
O        O      0.219550000000     0.437150000000     0.539550000000     0          
O        O      0.288150000000     0.407600000000     0.563875000000     0          
O        O      0.250000000000     0.426600000000     0.625000000000     0          
O        O      0.160000000000     0.408300000000     0.732500000000     0          
O        O      0.157500000000     0.426400000000     0.566650000000     0          
O        O      0.408200000000     0.407950000000     0.668700000000     0          
O        O      0.355000000000     0.436150000000     0.602150000000     0          
O        O      0.280450000000     0.437150000000     0.710450000000     0          
O        O      0.211850000000     0.407600000000     0.686125000000     0          
O        O      0.340000000000     0.408300000000     0.517500000000     0          
O        O      0.342500000000     0.426400000000     0.683350000000     0          
O        O      0.091800000000     0.407950000000     0.581300000000     0          
O        O      0.145000000000     0.436150000000     0.647850000000     0          
O        O      0.030450000000     0.312850000000     0.960450000000     0          
O        O      0.479550000000     0.250000000000     0.921225000000     0          
O        O      0.461850000000     0.342400000000     0.936125000000     0          
O        O      0.000000000000     0.323400000000     0.875000000000     0          
O        O      0.090000000000     0.341700000000     0.767500000000     0          
O        O      0.084750000000     0.250000000000     0.987200000000     0          
O        O      0.092500000000     0.323600000000     0.933350000000     0          
O        O      0.341800000000     0.342050000000     0.831300000000     0          
O        O      0.395000000000     0.313850000000     0.897850000000     0          
O        O      0.366400000000     0.250000000000     0.834700000000     0          
O        O      0.469550000000     0.312850000000     0.789550000000     0          
O        O      0.020450000000     0.250000000000     0.828775000000     0          
O        O      0.038150000000     0.342400000000     0.813875000000     0          
O        O      0.410000000000     0.341700000000     0.982500000000     0          
O        O      0.415250000000     0.250000000000     0.762800000000     0          
O        O      0.407500000000     0.323600000000     0.816650000000     0          
O        O      0.158200000000     0.342050000000     0.918700000000     0          
O        O      0.105000000000     0.313850000000     0.852150000000     0          
O        O      0.133600000000     0.250000000000     0.915300000000     0          
O        O      0.469550000000     0.187150000000     0.789550000000     0          
O        O      0.038150000000     0.157600000000     0.813875000000     0          
O        O      0.000000000000     0.176600000000     0.875000000000     0          
O        O      0.410000000000     0.158300000000     0.982500000000     0          
O        O      0.407500000000     0.176400000000     0.816650000000     0          
O        O      0.158200000000     0.157950000000     0.918700000000     0          
O        O      0.105000000000     0.186150000000     0.852150000000     0          
O        O      0.030450000000     0.187150000000     0.960450000000     0          
O        O      0.461850000000     0.157600000000     0.936125000000     0          
O        O      0.090000000000     0.158300000000     0.767500000000     0          
O        O      0.092500000000     0.176400000000     0.933350000000     0          
O        O      0.341800000000     0.157950000000     0.831300000000     0          
O        O      0.395000000000     0.186150000000     0.897850000000     0          
O        O      0.280450000000     0.062850000000     0.960450000000     0          
O        O      0.229550000000     0.000000000000     0.921225000000     0          
O        O      0.211850000000     0.092400000000     0.936125000000     0          
O        O      0.250000000000     0.073400000000     0.875000000000     0          
O        O      0.340000000000     0.091700000000     0.767500000000     0          
O        O      0.334750000000     0.000000000000     0.987200000000     0          
O        O      0.342500000000     0.073600000000     0.933350000000     0          
O        O      0.091800000000     0.092050000000     0.831300000000     0          
O        O      0.145000000000     0.063850000000     0.897850000000     0          
O        O      0.116400000000     0.000000000000     0.834700000000     0          
O        O      0.219550000000     0.062850000000     0.789550000000     0          
O        O      0.270450000000     0.000000000000     0.828775000000     0          
O        O      0.288150000000     0.092400000000     0.813875000000     0          
O        O      0.160000000000     0.091700000000     0.982500000000     0          
O        O      0.165250000000     0.000000000000     0.762800000000     0          
O        O      0.157500000000     0.073600000000     0.816650000000     0          
O        O      0.408200000000     0.092050000000     0.918700000000     0          
O        O      0.355000000000     0.063850000000     0.852150000000     0          
O        O      0.383600000000     0.000000000000     0.915300000000     0          
O        O      0.219550000000     0.437150000000     0.789550000000     0          
O        O      0.288150000000     0.407600000000     0.813875000000     0          
O        O      0.250000000000     0.426600000000     0.875000000000     0          
O        O      0.160000000000     0.408300000000     0.982500000000     0          
O        O      0.157500000000     0.426400000000     0.816650000000     0          
O        O      0.408200000000     0.407950000000     0.918700000000     0          
O        O      0.355000000000     0.436150000000     0.852150000000     0          
O        O      0.280450000000     0.437150000000     0.960450000000     0          
O        O      0.211850000000     0.407600000000     0.936125000000     0          
O        O      0.340000000000     0.408300000000     0.767500000000     0          
O        O      0.342500000000     0.426400000000     0.933350000000     0          
O        O      0.091800000000     0.407950000000     0.831300000000     0          
O        O      0.145000000000     0.436150000000     0.897850000000     0          
O        O      0.030450000000     0.812850000000     0.210450000000     0          
O        O      0.479550000000     0.750000000000     0.171225000000     0          
O        O      0.461850000000     0.842400000000     0.186125000000     0          
O        O      0.000000000000     0.823400000000     0.125000000000     0          
O        O      0.090000000000     0.841700000000     0.017500000000     0          
O        O      0.084750000000     0.750000000000     0.237200000000     0          
O        O      0.092500000000     0.823600000000     0.183350000000     0          
O        O      0.341800000000     0.842050000000     0.081300000000     0          
O        O      0.395000000000     0.813850000000     0.147850000000     0          
O        O      0.366400000000     0.750000000000     0.084700000000     0          
O        O      0.469550000000     0.812850000000     0.039550000000     0          
O        O      0.020450000000     0.750000000000     0.078775000000     0          
O        O      0.038150000000     0.842400000000     0.063875000000     0          
O        O      0.410000000000     0.841700000000     0.232500000000     0          
O        O      0.415250000000     0.750000000000     0.012800000000     0          
O        O      0.407500000000     0.823600000000     0.066650000000     0          
O        O      0.158200000000     0.842050000000     0.168700000000     0          
O        O      0.105000000000     0.813850000000     0.102150000000     0          
O        O      0.133600000000     0.750000000000     0.165300000000     0          
O        O      0.469550000000     0.687150000000     0.039550000000     0          
O        O      0.038150000000     0.657600000000     0.063875000000     0          
O        O      0.000000000000     0.676600000000     0.125000000000     0          
O        O      0.410000000000     0.658300000000     0.232500000000     0          
O        O      0.407500000000     0.676400000000     0.066650000000     0          
O        O      0.158200000000     0.657950000000     0.168700000000     0          
O        O      0.105000000000     0.686150000000     0.102150000000     0          
O        O      0.030450000000     0.687150000000     0.210450000000     0          
O        O      0.461850000000     0.657600000000     0.186125000000     0          
O        O      0.090000000000     0.658300000000     0.017500000000     0          
O        O      0.092500000000     0.676400000000     0.183350000000     0          
O        O      0.341800000000     0.657950000000     0.081300000000     0          
O        O      0.395000000000     0.686150000000     0.147850000000     0          
O        O      0.280450000000     0.562850000000     0.210450000000     0          
O        O      0.229550000000     0.500000000000     0.171225000000     0          
O        O      0.211850000000     0.592400000000     0.186125000000     0          
O        O      0.250000000000     0.573400000000     0.125000000000     0          
O        O      0.340000000000     0.591700000000     0.017500000000     0          
O        O      0.334750000000     0.500000000000     0.237200000000     0          
O        O      0.342500000000     0.573600000000     0.183350000000     0          
O        O      0.091800000000     0.592050000000     0.081300000000     0          
O        O      0.145000000000     0.563850000000     0.147850000000     0          
O        O      0.116400000000     0.500000000000     0.084700000000     0          
O        O      0.219550000000     0.562850000000     0.039550000000     0          
O        O      0.270450000000     0.500000000000     0.078775000000     0          
O        O      0.288150000000     0.592400000000     0.063875000000     0          
O        O      0.160000000000     0.591700000000     0.232500000000     0          
O        O      0.165250000000     0.500000000000     0.012800000000     0          
O        O      0.157500000000     0.573600000000     0.066650000000     0          
O        O      0.408200000000     0.592050000000     0.168700000000     0          
O        O      0.355000000000     0.563850000000     0.102150000000     0          
O        O      0.383600000000     0.500000000000     0.165300000000     0          
O        O      0.219550000000     0.937150000000     0.039550000000     0          
O        O      0.288150000000     0.907600000000     0.063875000000     0          
O        O      0.250000000000     0.926600000000     0.125000000000     0          
O        O      0.160000000000     0.908300000000     0.232500000000     0          
O        O      0.157500000000     0.926400000000     0.066650000000     0          
O        O      0.408200000000     0.907950000000     0.168700000000     0          
O        O      0.355000000000     0.936150000000     0.102150000000     0          
O        O      0.280450000000     0.937150000000     0.210450000000     0          
O        O      0.211850000000     0.907600000000     0.186125000000     0          
O        O      0.340000000000     0.908300000000     0.017500000000     0          
O        O      0.342500000000     0.926400000000     0.183350000000     0          
O        O      0.091800000000     0.907950000000     0.081300000000     0          
O        O      0.145000000000     0.936150000000     0.147850000000     0          
O        O      0.030450000000     0.812850000000     0.460450000000     0          
O        O      0.479550000000     0.750000000000     0.421225000000     0          
O        O      0.461850000000     0.842400000000     0.436125000000     0          
O        O      0.000000000000     0.823400000000     0.375000000000     0          
O        O      0.090000000000     0.841700000000     0.267500000000     0          
O        O      0.084750000000     0.750000000000     0.487200000000     0          
O        O      0.092500000000     0.823600000000     0.433350000000     0          
O        O      0.341800000000     0.842050000000     0.331300000000     0          
O        O      0.395000000000     0.813850000000     0.397850000000     0          
O        O      0.366400000000     0.750000000000     0.334700000000     0          
O        O      0.469550000000     0.812850000000     0.289550000000     0          
O        O      0.020450000000     0.750000000000     0.328775000000     0          
O        O      0.038150000000     0.842400000000     0.313875000000     0          
O        O      0.410000000000     0.841700000000     0.482500000000     0          
O        O      0.415250000000     0.750000000000     0.262800000000     0          
O        O      0.407500000000     0.823600000000     0.316650000000     0          
O        O      0.158200000000     0.842050000000     0.418700000000     0          
O        O      0.105000000000     0.813850000000     0.352150000000     0          
O        O      0.133600000000     0.750000000000     0.415300000000     0          
O        O      0.469550000000     0.687150000000     0.289550000000     0          
O        O      0.038150000000     0.657600000000     0.313875000000     0          
O        O      0.000000000000     0.676600000000     0.375000000000     0          
O        O      0.410000000000     0.658300000000     0.482500000000     0          
O        O      0.407500000000     0.676400000000     0.316650000000     0          
O        O      0.158200000000     0.657950000000     0.418700000000     0          
O        O      0.105000000000     0.686150000000     0.352150000000     0          
O        O      0.030450000000     0.687150000000     0.460450000000     0          
O        O      0.461850000000     0.657600000000     0.436125000000     0          
O        O      0.090000000000     0.658300000000     0.267500000000     0          
O        O      0.092500000000     0.676400000000     0.433350000000     0          
O        O      0.341800000000     0.657950000000     0.331300000000     0          
O        O      0.395000000000     0.686150000000     0.397850000000     0          
O        O      0.280450000000     0.562850000000     0.460450000000     0          
O        O      0.229550000000     0.500000000000     0.421225000000     0          
O        O      0.211850000000     0.592400000000     0.436125000000     0          
O        O      0.250000000000     0.573400000000     0.375000000000     0          
O        O      0.340000000000     0.591700000000     0.267500000000     0          
O        O      0.334750000000     0.500000000000     0.487200000000     0          
O        O      0.342500000000     0.573600000000     0.433350000000     0          
O        O      0.091800000000     0.592050000000     0.331300000000     0          
O        O      0.145000000000     0.563850000000     0.397850000000     0          
O        O      0.116400000000     0.500000000000     0.334700000000     0          
O        O      0.219550000000     0.562850000000     0.289550000000     0          
O        O      0.270450000000     0.500000000000     0.328775000000     0          
O        O      0.288150000000     0.592400000000     0.313875000000     0          
O        O      0.160000000000     0.591700000000     0.482500000000     0          
O        O      0.165250000000     0.500000000000     0.262800000000     0          
O        O      0.157500000000     0.573600000000     0.316650000000     0          
O        O      0.408200000000     0.592050000000     0.418700000000     0          
O        O      0.355000000000     0.563850000000     0.352150000000     0          
O        O      0.383600000000     0.500000000000     0.415300000000     0          
O        O      0.219550000000     0.937150000000     0.289550000000     0          
O        O      0.288150000000     0.907600000000     0.313875000000     0          
O        O      0.250000000000     0.926600000000     0.375000000000     0          
O        O      0.160000000000     0.908300000000     0.482500000000     0          
O        O      0.157500000000     0.926400000000     0.316650000000     0          
O        O      0.408200000000     0.907950000000     0.418700000000     0          
O        O      0.355000000000     0.936150000000     0.352150000000     0          
O        O      0.280450000000     0.937150000000     0.460450000000     0          
O        O      0.211850000000     0.907600000000     0.436125000000     0          
O        O      0.340000000000     0.908300000000     0.267500000000     0          
O        O      0.342500000000     0.926400000000     0.433350000000     0          
O        O      0.091800000000     0.907950000000     0.331300000000     0          
O        O      0.145000000000     0.936150000000     0.397850000000     0          
O        O      0.030450000000     0.812850000000     0.710450000000     0          
O        O      0.479550000000     0.750000000000     0.671225000000     0          
O        O      0.461850000000     0.842400000000     0.686125000000     0          
O        O      0.000000000000     0.823400000000     0.625000000000     0          
O        O      0.090000000000     0.841700000000     0.517500000000     0          
O        O      0.084750000000     0.750000000000     0.737200000000     0          
O        O      0.092500000000     0.823600000000     0.683350000000     0          
O        O      0.341800000000     0.842050000000     0.581300000000     0          
O        O      0.395000000000     0.813850000000     0.647850000000     0          
O        O      0.366400000000     0.750000000000     0.584700000000     0          
O        O      0.469550000000     0.812850000000     0.539550000000     0          
O        O      0.020450000000     0.750000000000     0.578775000000     0          
O        O      0.038150000000     0.842400000000     0.563875000000     0          
O        O      0.410000000000     0.841700000000     0.732500000000     0          
O        O      0.415250000000     0.750000000000     0.512800000000     0          
O        O      0.407500000000     0.823600000000     0.566650000000     0          
O        O      0.158200000000     0.842050000000     0.668700000000     0          
O        O      0.105000000000     0.813850000000     0.602150000000     0          
O        O      0.133600000000     0.750000000000     0.665300000000     0          
O        O      0.469550000000     0.687150000000     0.539550000000     0          
O        O      0.038150000000     0.657600000000     0.563875000000     0          
O        O      0.000000000000     0.676600000000     0.625000000000     0          
O        O      0.410000000000     0.658300000000     0.732500000000     0          
O        O      0.407500000000     0.676400000000     0.566650000000     0          
O        O      0.158200000000     0.657950000000     0.668700000000     0          
O        O      0.105000000000     0.686150000000     0.602150000000     0          
O        O      0.030450000000     0.687150000000     0.710450000000     0          
O        O      0.461850000000     0.657600000000     0.686125000000     0          
O        O      0.090000000000     0.658300000000     0.517500000000     0          
O        O      0.092500000000     0.676400000000     0.683350000000     0          
O        O      0.341800000000     0.657950000000     0.581300000000     0          
O        O      0.395000000000     0.686150000000     0.647850000000     0          
O        O      0.280450000000     0.562850000000     0.710450000000     0          
O        O      0.229550000000     0.500000000000     0.671225000000     0          
O        O      0.211850000000     0.592400000000     0.686125000000     0          
O        O      0.250000000000     0.573400000000     0.625000000000     0          
O        O      0.340000000000     0.591700000000     0.517500000000     0          
O        O      0.334750000000     0.500000000000     0.737200000000     0          
O        O      0.342500000000     0.573600000000     0.683350000000     0          
O        O      0.091800000000     0.592050000000     0.581300000000     0          
O        O      0.145000000000     0.563850000000     0.647850000000     0          
O        O      0.116400000000     0.500000000000     0.584700000000     0          
O        O      0.219550000000     0.562850000000     0.539550000000     0          
O        O      0.270450000000     0.500000000000     0.578775000000     0          
O        O      0.288150000000     0.592400000000     0.563875000000     0          
O        O      0.160000000000     0.591700000000     0.732500000000     0          
O        O      0.165250000000     0.500000000000     0.512800000000     0          
O        O      0.157500000000     0.573600000000     0.566650000000     0          
O        O      0.408200000000     0.592050000000     0.668700000000     0          
O        O      0.355000000000     0.563850000000     0.602150000000     0          
O        O      0.383600000000     0.500000000000     0.665300000000     0          
O        O      0.219550000000     0.937150000000     0.539550000000     0          
O        O      0.288150000000     0.907600000000     0.563875000000     0          
O        O      0.250000000000     0.926600000000     0.625000000000     0          
O        O      0.160000000000     0.908300000000     0.732500000000     0          
O        O      0.157500000000     0.926400000000     0.566650000000     0          
O        O      0.408200000000     0.907950000000     0.668700000000     0          
O        O      0.355000000000     0.936150000000     0.602150000000     0          
O        O      0.280450000000     0.937150000000     0.710450000000     0          
O        O      0.211850000000     0.907600000000     0.686125000000     0          
O        O      0.340000000000     0.908300000000     0.517500000000     0          
O        O      0.342500000000     0.926400000000     0.683350000000     0          
O        O      0.091800000000     0.907950000000     0.581300000000     0          
O        O      0.145000000000     0.936150000000     0.647850000000     0          
O        O      0.030450000000     0.812850000000     0.960450000000     0          
O        O      0.479550000000     0.750000000000     0.921225000000     0          
O        O      0.461850000000     0.842400000000     0.936125000000     0          
O        O      0.000000000000     0.823400000000     0.875000000000     0          
O        O      0.090000000000     0.841700000000     0.767500000000     0          
O        O      0.084750000000     0.750000000000     0.987200000000     0          
O        O      0.092500000000     0.823600000000     0.933350000000     0          
O        O      0.341800000000     0.842050000000     0.831300000000     0          
O        O      0.395000000000     0.813850000000     0.897850000000     0          
O        O      0.366400000000     0.750000000000     0.834700000000     0          
O        O      0.469550000000     0.812850000000     0.789550000000     0          
O        O      0.020450000000     0.750000000000     0.828775000000     0          
O        O      0.038150000000     0.842400000000     0.813875000000     0          
O        O      0.410000000000     0.841700000000     0.982500000000     0          
O        O      0.415250000000     0.750000000000     0.762800000000     0          
O        O      0.407500000000     0.823600000000     0.816650000000     0          
O        O      0.158200000000     0.842050000000     0.918700000000     0          
O        O      0.105000000000     0.813850000000     0.852150000000     0          
O        O      0.133600000000     0.750000000000     0.915300000000     0          
O        O      0.469550000000     0.687150000000     0.789550000000     0          
O        O      0.038150000000     0.657600000000     0.813875000000     0          
O        O      0.000000000000     0.676600000000     0.875000000000     0          
O        O      0.410000000000     0.658300000000     0.982500000000     0          
O        O      0.407500000000     0.676400000000     0.816650000000     0          
O        O      0.158200000000     0.657950000000     0.918700000000     0          
O        O      0.105000000000     0.686150000000     0.852150000000     0          
O        O      0.030450000000     0.687150000000     0.960450000000     0          
O        O      0.461850000000     0.657600000000     0.936125000000     0          
O        O      0.090000000000     0.658300000000     0.767500000000     0          
O        O      0.092500000000     0.676400000000     0.933350000000     0          
O        O      0.341800000000     0.657950000000     0.831300000000     0          
O        O      0.395000000000     0.686150000000     0.897850000000     0          
O        O      0.280450000000     0.562850000000     0.960450000000     0          
O        O      0.229550000000     0.500000000000     0.921225000000     0          
O        O      0.211850000000     0.592400000000     0.936125000000     0          
O        O      0.250000000000     0.573400000000     0.875000000000     0          
O        O      0.340000000000     0.591700000000     0.767500000000     0          
O        O      0.334750000000     0.500000000000     0.987200000000     0          
O        O      0.342500000000     0.573600000000     0.933350000000     0          
O        O      0.091800000000     0.592050000000     0.831300000000     0          
O        O      0.145000000000     0.563850000000     0.897850000000     0          
O        O      0.116400000000     0.500000000000     0.834700000000     0          
O        O      0.219550000000     0.562850000000     0.789550000000     0          
O        O      0.270450000000     0.500000000000     0.828775000000     0          
O        O      0.288150000000     0.592400000000     0.813875000000     0          
O        O      0.160000000000     0.591700000000     0.982500000000     0          
O        O      0.165250000000     0.500000000000     0.762800000000     0          
O        O      0.157500000000     0.573600000000     0.816650000000     0          
O        O      0.408200000000     0.592050000000     0.918700000000     0          
O        O      0.355000000000     0.563850000000     0.852150000000     0          
O        O      0.383600000000     0.500000000000     0.915300000000     0          
O        O      0.219550000000     0.937150000000     0.789550000000     0          
O        O      0.288150000000     0.907600000000     0.813875000000     0          
O        O      0.250000000000     0.926600000000     0.875000000000     0          
O        O      0.160000000000     0.908300000000     0.982500000000     0          
O        O      0.157500000000     0.926400000000     0.816650000000     0          
O        O      0.408200000000     0.907950000000     0.918700000000     0          
O        O      0.355000000000     0.936150000000     0.852150000000     0          
O        O      0.280450000000     0.937150000000     0.960450000000     0          
O        O      0.211850000000     0.907600000000     0.936125000000     0          
O        O      0.340000000000     0.908300000000     0.767500000000     0          
O        O      0.342500000000     0.926400000000     0.933350000000     0          
O        O      0.091800000000     0.907950000000     0.831300000000     0          
O        O      0.145000000000     0.936150000000     0.897850000000     0          
O        O      0.530450000000     0.312850000000     0.210450000000     0          
O        O      0.979550000000     0.250000000000     0.171225000000     0          
O        O      0.961850000000     0.342400000000     0.186125000000     0          
O        O      0.500000000000     0.323400000000     0.125000000000     0          
O        O      0.590000000000     0.341700000000     0.017500000000     0          
O        O      0.584750000000     0.250000000000     0.237200000000     0          
O        O      0.592500000000     0.323600000000     0.183350000000     0          
O        O      0.841800000000     0.342050000000     0.081300000000     0          
O        O      0.895000000000     0.313850000000     0.147850000000     0          
O        O      0.866400000000     0.250000000000     0.084700000000     0          
O        O      0.969550000000     0.312850000000     0.039550000000     0          
O        O      0.520450000000     0.250000000000     0.078775000000     0          
O        O      0.538150000000     0.342400000000     0.063875000000     0          
O        O      0.910000000000     0.341700000000     0.232500000000     0          
O        O      0.915250000000     0.250000000000     0.012800000000     0          
O        O      0.907500000000     0.323600000000     0.066650000000     0          
O        O      0.658200000000     0.342050000000     0.168700000000     0          
O        O      0.605000000000     0.313850000000     0.102150000000     0          
O        O      0.633600000000     0.250000000000     0.165300000000     0          
O        O      0.969550000000     0.187150000000     0.039550000000     0          
O        O      0.538150000000     0.157600000000     0.063875000000     0          
O        O      0.500000000000     0.176600000000     0.125000000000     0          
O        O      0.910000000000     0.158300000000     0.232500000000     0          
O        O      0.907500000000     0.176400000000     0.066650000000     0          
O        O      0.658200000000     0.157950000000     0.168700000000     0          
O        O      0.605000000000     0.186150000000     0.102150000000     0          
O        O      0.530450000000     0.187150000000     0.210450000000     0          
O        O      0.961850000000     0.157600000000     0.186125000000     0          
O        O      0.590000000000     0.158300000000     0.017500000000     0          
O        O      0.592500000000     0.176400000000     0.183350000000     0          
O        O      0.841800000000     0.157950000000     0.081300000000     0          
O        O      0.895000000000     0.186150000000     0.147850000000     0          
O        O      0.780450000000     0.062850000000     0.210450000000     0          
O        O      0.729550000000     0.000000000000     0.171225000000     0          
O        O      0.711850000000     0.092400000000     0.186125000000     0          
O        O      0.750000000000     0.073400000000     0.125000000000     0          
O        O      0.840000000000     0.091700000000     0.017500000000     0          
O        O      0.834750000000     0.000000000000     0.237200000000     0          
O        O      0.842500000000     0.073600000000     0.183350000000     0          
O        O      0.591800000000     0.092050000000     0.081300000000     0          
O        O      0.645000000000     0.063850000000     0.147850000000     0          
O        O      0.616400000000     0.000000000000     0.084700000000     0          
O        O      0.719550000000     0.062850000000     0.039550000000     0          
O        O      0.770450000000     0.000000000000     0.078775000000     0          
O        O      0.788150000000     0.092400000000     0.063875000000     0          
O        O      0.660000000000     0.091700000000     0.232500000000     0          
O        O      0.665250000000     0.000000000000     0.012800000000     0          
O        O      0.657500000000     0.073600000000     0.066650000000     0          
O        O      0.908200000000     0.092050000000     0.168700000000     0          
O        O      0.855000000000     0.063850000000     0.102150000000     0          
O        O      0.883600000000     0.000000000000     0.165300000000     0          
O        O      0.719550000000     0.437150000000     0.039550000000     0          
O        O      0.788150000000     0.407600000000     0.063875000000     0          
O        O      0.750000000000     0.426600000000     0.125000000000     0          
O        O      0.660000000000     0.408300000000     0.232500000000     0          
O        O      0.657500000000     0.426400000000     0.066650000000     0          
O        O      0.908200000000     0.407950000000     0.168700000000     0          
O        O      0.855000000000     0.436150000000     0.102150000000     0          
O        O      0.780450000000     0.437150000000     0.210450000000     0          
O        O      0.711850000000     0.407600000000     0.186125000000     0          
O        O      0.840000000000     0.408300000000     0.017500000000     0          
O        O      0.842500000000     0.426400000000     0.183350000000     0          
O        O      0.591800000000     0.407950000000     0.081300000000     0          
O        O      0.645000000000     0.436150000000     0.147850000000     0          
O        O      0.530450000000     0.312850000000     0.460450000000     0          
O        O      0.979550000000     0.250000000000     0.421225000000     0          
O        O      0.961850000000     0.342400000000     0.436125000000     0          
O        O      0.500000000000     0.323400000000     0.375000000000     0          
O        O      0.590000000000     0.341700000000     0.267500000000     0          
O        O      0.584750000000     0.250000000000     0.487200000000     0          
O        O      0.592500000000     0.323600000000     0.433350000000     0          
O        O      0.841800000000     0.342050000000     0.331300000000     0          
O        O      0.895000000000     0.313850000000     0.397850000000     0          
O        O      0.866400000000     0.250000000000     0.334700000000     0          
O        O      0.969550000000     0.312850000000     0.289550000000     0          
O        O      0.520450000000     0.250000000000     0.328775000000     0          
O        O      0.538150000000     0.342400000000     0.313875000000     0          
O        O      0.910000000000     0.341700000000     0.482500000000     0          
O        O      0.915250000000     0.250000000000     0.262800000000     0          
O        O      0.907500000000     0.323600000000     0.316650000000     0          
O        O      0.658200000000     0.342050000000     0.418700000000     0          
O        O      0.605000000000     0.313850000000     0.352150000000     0          
O        O      0.633600000000     0.250000000000     0.415300000000     0          
O        O      0.969550000000     0.187150000000     0.289550000000     0          
O        O      0.538150000000     0.157600000000     0.313875000000     0          
O        O      0.500000000000     0.176600000000     0.375000000000     0          
O        O      0.910000000000     0.158300000000     0.482500000000     0          
O        O      0.907500000000     0.176400000000     0.316650000000     0          
O        O      0.658200000000     0.157950000000     0.418700000000     0          
O        O      0.605000000000     0.186150000000     0.352150000000     0          
O        O      0.530450000000     0.187150000000     0.460450000000     0          
O        O      0.961850000000     0.157600000000     0.436125000000     0          
O        O      0.590000000000     0.158300000000     0.267500000000     0          
O        O      0.592500000000     0.176400000000     0.433350000000     0          
O        O      0.841800000000     0.157950000000     0.331300000000     0          
O        O      0.895000000000     0.186150000000     0.397850000000     0          
O        O      0.780450000000     0.062850000000     0.460450000000     0          
O        O      0.729550000000     0.000000000000     0.421225000000     0          
O        O      0.711850000000     0.092400000000     0.436125000000     0          
O        O      0.750000000000     0.073400000000     0.375000000000     0          
O        O      0.840000000000     0.091700000000     0.267500000000     0          
O        O      0.834750000000     0.000000000000     0.487200000000     0          
O        O      0.842500000000     0.073600000000     0.433350000000     0          
O        O      0.591800000000     0.092050000000     0.331300000000     0          
O        O      0.645000000000     0.063850000000     0.397850000000     0          
O        O      0.616400000000     0.000000000000     0.334700000000     0          
O        O      0.719550000000     0.062850000000     0.289550000000     0          
O        O      0.770450000000     0.000000000000     0.328775000000     0          
O        O      0.788150000000     0.092400000000     0.313875000000     0          
O        O      0.660000000000     0.091700000000     0.482500000000     0          
O        O      0.665250000000     0.000000000000     0.262800000000     0          
O        O      0.657500000000     0.073600000000     0.316650000000     0          
O        O      0.908200000000     0.092050000000     0.418700000000     0          
O        O      0.855000000000     0.063850000000     0.352150000000     0          
O        O      0.883600000000     0.000000000000     0.415300000000     0          
O        O      0.719550000000     0.437150000000     0.289550000000     0          
O        O      0.788150000000     0.407600000000     0.313875000000     0          
O        O      0.750000000000     0.426600000000     0.375000000000     0          
O        O      0.660000000000     0.408300000000     0.482500000000     0          
O        O      0.657500000000     0.426400000000     0.316650000000     0          
O        O      0.908200000000     0.407950000000     0.418700000000     0          
O        O      0.855000000000     0.436150000000     0.352150000000     0          
O        O      0.780450000000     0.437150000000     0.460450000000     0          
O        O      0.711850000000     0.407600000000     0.436125000000     0          
O        O      0.840000000000     0.408300000000     0.267500000000     0          
O        O      0.842500000000     0.426400000000     0.433350000000     0          
O        O      0.591800000000     0.407950000000     0.331300000000     0          
O        O      0.645000000000     0.436150000000     0.397850000000     0          
O        O      0.530450000000     0.312850000000     0.710450000000     0          
O        O      0.979550000000     0.250000000000     0.671225000000     0          
O        O      0.961850000000     0.342400000000     0.686125000000     0          
O        O      0.500000000000     0.323400000000     0.625000000000     0          
O        O      0.590000000000     0.341700000000     0.517500000000     0          
O        O      0.584750000000     0.250000000000     0.737200000000     0          
O        O      0.592500000000     0.323600000000     0.683350000000     0          
O        O      0.841800000000     0.342050000000     0.581300000000     0          
O        O      0.895000000000     0.313850000000     0.647850000000     0          
O        O      0.866400000000     0.250000000000     0.584700000000     0          
O        O      0.969550000000     0.312850000000     0.539550000000     0          
O        O      0.520450000000     0.250000000000     0.578775000000     0          
O        O      0.538150000000     0.342400000000     0.563875000000     0          
O        O      0.910000000000     0.341700000000     0.732500000000     0          
O        O      0.915250000000     0.250000000000     0.512800000000     0          
O        O      0.907500000000     0.323600000000     0.566650000000     0          
O        O      0.658200000000     0.342050000000     0.668700000000     0          
O        O      0.605000000000     0.313850000000     0.602150000000     0          
O        O      0.633600000000     0.250000000000     0.665300000000     0          
O        O      0.969550000000     0.187150000000     0.539550000000     0          
O        O      0.538150000000     0.157600000000     0.563875000000     0          
O        O      0.500000000000     0.176600000000     0.625000000000     0          
O        O      0.910000000000     0.158300000000     0.732500000000     0          
O        O      0.907500000000     0.176400000000     0.566650000000     0          
O        O      0.658200000000     0.157950000000     0.668700000000     0          
O        O      0.605000000000     0.186150000000     0.602150000000     0          
O        O      0.530450000000     0.187150000000     0.710450000000     0          
O        O      0.961850000000     0.157600000000     0.686125000000     0          
O        O      0.590000000000     0.158300000000     0.517500000000     0          
O        O      0.592500000000     0.176400000000     0.683350000000     0          
O        O      0.841800000000     0.157950000000     0.581300000000     0          
O        O      0.895000000000     0.186150000000     0.647850000000     0          
O        O      0.780450000000     0.062850000000     0.710450000000     0          
O        O      0.729550000000     0.000000000000     0.671225000000     0          
O        O      0.711850000000     0.092400000000     0.686125000000     0          
O        O      0.750000000000     0.073400000000     0.625000000000     0          
O        O      0.840000000000     0.091700000000     0.517500000000     0          
O        O      0.834750000000     0.000000000000     0.737200000000     0          
O        O      0.842500000000     0.073600000000     0.683350000000     0          
O        O      0.591800000000     0.092050000000     0.581300000000     0          
O        O      0.645000000000     0.063850000000     0.647850000000     0          
O        O      0.616400000000     0.000000000000     0.584700000000     0          
O        O      0.719550000000     0.062850000000     0.539550000000     0          
O        O      0.770450000000     0.000000000000     0.578775000000     0          
O        O      0.788150000000     0.092400000000     0.563875000000     0          
O        O      0.660000000000     0.091700000000     0.732500000000     0          
O        O      0.665250000000     0.000000000000     0.512800000000     0          
O        O      0.657500000000     0.073600000000     0.566650000000     0          
O        O      0.908200000000     0.092050000000     0.668700000000     0          
O        O      0.855000000000     0.063850000000     0.602150000000     0          
O        O      0.883600000000     0.000000000000     0.665300000000     0          
O        O      0.719550000000     0.437150000000     0.539550000000     0          
O        O      0.788150000000     0.407600000000     0.563875000000     0          
O        O      0.750000000000     0.426600000000     0.625000000000     0          
O        O      0.660000000000     0.408300000000     0.732500000000     0          
O        O      0.657500000000     0.426400000000     0.566650000000     0          
O        O      0.908200000000     0.407950000000     0.668700000000     0          
O        O      0.855000000000     0.436150000000     0.602150000000     0          
O        O      0.780450000000     0.437150000000     0.710450000000     0          
O        O      0.711850000000     0.407600000000     0.686125000000     0          
O        O      0.840000000000     0.408300000000     0.517500000000     0          
O        O      0.842500000000     0.426400000000     0.683350000000     0          
O        O      0.591800000000     0.407950000000     0.581300000000     0          
O        O      0.645000000000     0.436150000000     0.647850000000     0          
O        O      0.530450000000     0.312850000000     0.960450000000     0          
O        O      0.979550000000     0.250000000000     0.921225000000     0          
O        O      0.961850000000     0.342400000000     0.936125000000     0          
O        O      0.500000000000     0.323400000000     0.875000000000     0          
O        O      0.590000000000     0.341700000000     0.767500000000     0          
O        O      0.584750000000     0.250000000000     0.987200000000     0          
O        O      0.592500000000     0.323600000000     0.933350000000     0          
O        O      0.841800000000     0.342050000000     0.831300000000     0          
O        O      0.895000000000     0.313850000000     0.897850000000     0          
O        O      0.866400000000     0.250000000000     0.834700000000     0          
O        O      0.969550000000     0.312850000000     0.789550000000     0          
O        O      0.520450000000     0.250000000000     0.828775000000     0          
O        O      0.538150000000     0.342400000000     0.813875000000     0          
O        O      0.910000000000     0.341700000000     0.982500000000     0          
O        O      0.915250000000     0.250000000000     0.762800000000     0          
O        O      0.907500000000     0.323600000000     0.816650000000     0          
O        O      0.658200000000     0.342050000000     0.918700000000     0          
O        O      0.605000000000     0.313850000000     0.852150000000     0          
O        O      0.633600000000     0.250000000000     0.915300000000     0          
O        O      0.969550000000     0.187150000000     0.789550000000     0          
O        O      0.538150000000     0.157600000000     0.813875000000     0          
O        O      0.500000000000     0.176600000000     0.875000000000     0          
O        O      0.910000000000     0.158300000000     0.982500000000     0          
O        O      0.907500000000     0.176400000000     0.816650000000     0          
O        O      0.658200000000     0.157950000000     0.918700000000     0          
O        O      0.605000000000     0.186150000000     0.852150000000     0          
O        O      0.530450000000     0.187150000000     0.960450000000     0          
O        O      0.961850000000     0.157600000000     0.936125000000     0          
O        O      0.590000000000     0.158300000000     0.767500000000     0          
O        O      0.592500000000     0.176400000000     0.933350000000     0          
O        O      0.841800000000     0.157950000000     0.831300000000     0          
O        O      0.895000000000     0.186150000000     0.897850000000     0          
O        O      0.780450000000     0.062850000000     0.960450000000     0          
O        O      0.729550000000     0.000000000000     0.921225000000     0          
O        O      0.711850000000     0.092400000000     0.936125000000     0          
O        O      0.750000000000     0.073400000000     0.875000000000     0          
O        O      0.840000000000     0.091700000000     0.767500000000     0          
O        O      0.834750000000     0.000000000000     0.987200000000     0          
O        O      0.842500000000     0.073600000000     0.933350000000     0          
O        O      0.591800000000     0.092050000000     0.831300000000     0          
O        O      0.645000000000     0.063850000000     0.897850000000     0          
O        O      0.616400000000     0.000000000000     0.834700000000     0          
O        O      0.719550000000     0.062850000000     0.789550000000     0          
O        O      0.770450000000     0.000000000000     0.828775000000     0          
O        O      0.788150000000     0.092400000000     0.813875000000     0          
O        O      0.660000000000     0.091700000000     0.982500000000     0          
O        O      0.665250000000     0.000000000000     0.762800000000     0          
O        O      0.657500000000     0.073600000000     0.816650000000     0          
O        O      0.908200000000     0.092050000000     0.918700000000     0          
O        O      0.855000000000     0.063850000000     0.852150000000     0          
O        O      0.883600000000     0.000000000000     0.915300000000     0          
O        O      0.719550000000     0.437150000000     0.789550000000     0          
O        O      0.788150000000     0.407600000000     0.813875000000     0          
O        O      0.750000000000     0.426600000000     0.875000000000     0          
O        O      0.660000000000     0.408300000000     0.982500000000     0          
O        O      0.657500000000     0.426400000000     0.816650000000     0          
O        O      0.908200000000     0.407950000000     0.918700000000     0          
O        O      0.855000000000     0.436150000000     0.852150000000     0          
O        O      0.780450000000     0.437150000000     0.960450000000     0          
O        O      0.711850000000     0.407600000000     0.936125000000     0          
O        O      0.840000000000     0.408300000000     0.767500000000     0          
O        O      0.842500000000     0.426400000000     0.933350000000     0          
O        O      0.591800000000     0.407950000000     0.831300000000     0          
O        O      0.645000000000     0.436150000000     0.897850000000     0          
O        O      0.530450000000     0.812850000000     0.210450000000     0          
O        O      0.979550000000     0.750000000000     0.171225000000     0          
O        O      0.961850000000     0.842400000000     0.186125000000     0          
O        O      0.500000000000     0.823400000000     0.125000000000     0          
O        O      0.590000000000     0.841700000000     0.017500000000     0          
O        O      0.584750000000     0.750000000000     0.237200000000     0          
O        O      0.592500000000     0.823600000000     0.183350000000     0          
O        O      0.841800000000     0.842050000000     0.081300000000     0          
O        O      0.895000000000     0.813850000000     0.147850000000     0          
O        O      0.866400000000     0.750000000000     0.084700000000     0          
O        O      0.969550000000     0.812850000000     0.039550000000     0          
O        O      0.520450000000     0.750000000000     0.078775000000     0          
O        O      0.538150000000     0.842400000000     0.063875000000     0          
O        O      0.910000000000     0.841700000000     0.232500000000     0          
O        O      0.915250000000     0.750000000000     0.012800000000     0          
O        O      0.907500000000     0.823600000000     0.066650000000     0          
O        O      0.658200000000     0.842050000000     0.168700000000     0          
O        O      0.605000000000     0.813850000000     0.102150000000     0          
O        O      0.633600000000     0.750000000000     0.165300000000     0          
O        O      0.969550000000     0.687150000000     0.039550000000     0          
O        O      0.538150000000     0.657600000000     0.063875000000     0          
O        O      0.500000000000     0.676600000000     0.125000000000     0          
O        O      0.910000000000     0.658300000000     0.232500000000     0          
O        O      0.907500000000     0.676400000000     0.066650000000     0          
O        O      0.658200000000     0.657950000000     0.168700000000     0          
O        O      0.605000000000     0.686150000000     0.102150000000     0          
O        O      0.530450000000     0.687150000000     0.210450000000     0          
O        O      0.961850000000     0.657600000000     0.186125000000     0          
O        O      0.590000000000     0.658300000000     0.017500000000     0          
O        O      0.592500000000     0.676400000000     0.183350000000     0          
O        O      0.841800000000     0.657950000000     0.081300000000     0          
O        O      0.895000000000     0.686150000000     0.147850000000     0          
O        O      0.780450000000     0.562850000000     0.210450000000     0          
O        O      0.729550000000     0.500000000000     0.171225000000     0          
O        O      0.711850000000     0.592400000000     0.186125000000     0          
O        O      0.750000000000     0.573400000000     0.125000000000     0          
O        O      0.840000000000     0.591700000000     0.017500000000     0          
O        O      0.834750000000     0.500000000000     0.237200000000     0          
O        O      0.842500000000     0.573600000000     0.183350000000     0          
O        O      0.591800000000     0.592050000000     0.081300000000     0          
O        O      0.645000000000     0.563850000000     0.147850000000     0          
O        O      0.616400000000     0.500000000000     0.084700000000     0          
O        O      0.719550000000     0.562850000000     0.039550000000     0          
O        O      0.770450000000     0.500000000000     0.078775000000     0          
O        O      0.788150000000     0.592400000000     0.063875000000     0          
O        O      0.660000000000     0.591700000000     0.232500000000     0          
O        O      0.665250000000     0.500000000000     0.012800000000     0          
O        O      0.657500000000     0.573600000000     0.066650000000     0          
O        O      0.908200000000     0.592050000000     0.168700000000     0          
O        O      0.855000000000     0.563850000000     0.102150000000     0          
O        O      0.883600000000     0.500000000000     0.165300000000     0          
O        O      0.719550000000     0.937150000000     0.039550000000     0          
O        O      0.788150000000     0.907600000000     0.063875000000     0          
O        O      0.750000000000     0.926600000000     0.125000000000     0          
O        O      0.660000000000     0.908300000000     0.232500000000     0          
O        O      0.657500000000     0.926400000000     0.066650000000     0          
O        O      0.908200000000     0.907950000000     0.168700000000     0          
O        O      0.855000000000     0.936150000000     0.102150000000     0          
O        O      0.780450000000     0.937150000000     0.210450000000     0          
O        O      0.711850000000     0.907600000000     0.186125000000     0          
O        O      0.840000000000     0.908300000000     0.017500000000     0          
O        O      0.842500000000     0.926400000000     0.183350000000     0          
O        O      0.591800000000     0.907950000000     0.081300000000     0          
O        O      0.645000000000     0.936150000000     0.147850000000     0          
O        O      0.530450000000     0.812850000000     0.460450000000     0          
O        O      0.979550000000     0.750000000000     0.421225000000     0          
O        O      0.961850000000     0.842400000000     0.436125000000     0          
O        O      0.500000000000     0.823400000000     0.375000000000     0          
O        O      0.590000000000     0.841700000000     0.267500000000     0          
O        O      0.584750000000     0.750000000000     0.487200000000     0          
O        O      0.592500000000     0.823600000000     0.433350000000     0          
O        O      0.841800000000     0.842050000000     0.331300000000     0          
O        O      0.895000000000     0.813850000000     0.397850000000     0          
O        O      0.866400000000     0.750000000000     0.334700000000     0          
O        O      0.969550000000     0.812850000000     0.289550000000     0          
O        O      0.520450000000     0.750000000000     0.328775000000     0          
O        O      0.538150000000     0.842400000000     0.313875000000     0          
O        O      0.910000000000     0.841700000000     0.482500000000     0          
O        O      0.915250000000     0.750000000000     0.262800000000     0          
O        O      0.907500000000     0.823600000000     0.316650000000     0          
O        O      0.658200000000     0.842050000000     0.418700000000     0          
O        O      0.605000000000     0.813850000000     0.352150000000     0          
O        O      0.633600000000     0.750000000000     0.415300000000     0          
O        O      0.969550000000     0.687150000000     0.289550000000     0          
O        O      0.538150000000     0.657600000000     0.313875000000     0          
O        O      0.500000000000     0.676600000000     0.375000000000     0          
O        O      0.910000000000     0.658300000000     0.482500000000     0          
O        O      0.907500000000     0.676400000000     0.316650000000     0          
O        O      0.658200000000     0.657950000000     0.418700000000     0          
O        O      0.605000000000     0.686150000000     0.352150000000     0          
O        O      0.530450000000     0.687150000000     0.460450000000     0          
O        O      0.961850000000     0.657600000000     0.436125000000     0          
O        O      0.590000000000     0.658300000000     0.267500000000     0          
O        O      0.592500000000     0.676400000000     0.433350000000     0          
O        O      0.841800000000     0.657950000000     0.331300000000     0          
O        O      0.895000000000     0.686150000000     0.397850000000     0          
O        O      0.780450000000     0.562850000000     0.460450000000     0          
O        O      0.729550000000     0.500000000000     0.421225000000     0          
O        O      0.711850000000     0.592400000000     0.436125000000     0          
O        O      0.750000000000     0.573400000000     0.375000000000     0          
O        O      0.840000000000     0.591700000000     0.267500000000     0          
O        O      0.834750000000     0.500000000000     0.487200000000     0          
O        O      0.842500000000     0.573600000000     0.433350000000     0          
O        O      0.591800000000     0.592050000000     0.331300000000     0          
O        O      0.645000000000     0.563850000000     0.397850000000     0          
O        O      0.616400000000     0.500000000000     0.334700000000     0          
O        O      0.719550000000     0.562850000000     0.289550000000     0          
O        O      0.770450000000     0.500000000000     0.328775000000     0          
O        O      0.788150000000     0.592400000000     0.313875000000     0          
O        O      0.660000000000     0.591700000000     0.482500000000     0          
O        O      0.665250000000     0.500000000000     0.262800000000     0          
O        O      0.657500000000     0.573600000000     0.316650000000     0          
O        O      0.908200000000     0.592050000000     0.418700000000     0          
O        O      0.855000000000     0.563850000000     0.352150000000     0          
O        O      0.883600000000     0.500000000000     0.415300000000     0          
O        O      0.719550000000     0.937150000000     0.289550000000     0          
O        O      0.788150000000     0.907600000000     0.313875000000     0          
O        O      0.750000000000     0.926600000000     0.375000000000     0          
O        O      0.660000000000     0.908300000000     0.482500000000     0          
O        O      0.657500000000     0.926400000000     0.316650000000     0          
O        O      0.908200000000     0.907950000000     0.418700000000     0          
O        O      0.855000000000     0.936150000000     0.352150000000     0          
O        O      0.780450000000     0.937150000000     0.460450000000     0          
O        O      0.711850000000     0.907600000000     0.436125000000     0          
O        O      0.840000000000     0.908300000000     0.267500000000     0          
O        O      0.842500000000     0.926400000000     0.433350000000     0          
O        O      0.591800000000     0.907950000000     0.331300000000     0          
O        O      0.645000000000     0.936150000000     0.397850000000     0          
O        O      0.530450000000     0.812850000000     0.710450000000     0          
O        O      0.979550000000     0.750000000000     0.671225000000     0          
O        O      0.961850000000     0.842400000000     0.686125000000     0          
O        O      0.500000000000     0.823400000000     0.625000000000     0          
O        O      0.590000000000     0.841700000000     0.517500000000     0          
O        O      0.584750000000     0.750000000000     0.737200000000     0          
O        O      0.592500000000     0.823600000000     0.683350000000     0          
O        O      0.841800000000     0.842050000000     0.581300000000     0          
O        O      0.895000000000     0.813850000000     0.647850000000     0          
O        O      0.866400000000     0.750000000000     0.584700000000     0          
O        O      0.969550000000     0.812850000000     0.539550000000     0          
O        O      0.520450000000     0.750000000000     0.578775000000     0          
O        O      0.538150000000     0.842400000000     0.563875000000     0          
O        O      0.910000000000     0.841700000000     0.732500000000     0          
O        O      0.915250000000     0.750000000000     0.512800000000     0          
O        O      0.907500000000     0.823600000000     0.566650000000     0          
O        O      0.658200000000     0.842050000000     0.668700000000     0          
O        O      0.605000000000     0.813850000000     0.602150000000     0          
O        O      0.633600000000     0.750000000000     0.665300000000     0          
O        O      0.969550000000     0.687150000000     0.539550000000     0          
O        O      0.538150000000     0.657600000000     0.563875000000     0          
O        O      0.500000000000     0.676600000000     0.625000000000     0          
O        O      0.910000000000     0.658300000000     0.732500000000     0          
O        O      0.907500000000     0.676400000000     0.566650000000     0          
O        O      0.658200000000     0.657950000000     0.668700000000     0          
O        O      0.605000000000     0.686150000000     0.602150000000     0          
O        O      0.530450000000     0.687150000000     0.710450000000     0          
O        O      0.961850000000     0.657600000000     0.686125000000     0          
O        O      0.590000000000     0.658300000000     0.517500000000     0          
O        O      0.592500000000     0.676400000000     0.683350000000     0          
O        O      0.841800000000     0.657950000000     0.581300000000     0          
O        O      0.895000000000     0.686150000000     0.647850000000     0          
O        O      0.780450000000     0.562850000000     0.710450000000     0          
O        O      0.729550000000     0.500000000000     0.671225000000     0          
O        O      0.711850000000     0.592400000000     0.686125000000     0          
O        O      0.750000000000     0.573400000000     0.625000000000     0          
O        O      0.840000000000     0.591700000000     0.517500000000     0          
O        O      0.834750000000     0.500000000000     0.737200000000     0          
O        O      0.842500000000     0.573600000000     0.683350000000     0          
O        O      0.591800000000     0.592050000000     0.581300000000     0          
O        O      0.645000000000     0.563850000000     0.647850000000     0          
O        O      0.616400000000     0.500000000000     0.584700000000     0          
O        O      0.719550000000     0.562850000000     0.539550000000     0          
O        O      0.770450000000     0.500000000000     0.578775000000     0          
O        O      0.788150000000     0.592400000000     0.563875000000     0          
O        O      0.660000000000     0.591700000000     0.732500000000     0          
O        O      0.665250000000     0.500000000000     0.512800000000     0          
O        O      0.657500000000     0.573600000000     0.566650000000     0          
O        O      0.908200000000     0.592050000000     0.668700000000     0          
O        O      0.855000000000     0.563850000000     0.602150000000     0          
O        O      0.883600000000     0.500000000000     0.665300000000     0          
O        O      0.719550000000     0.937150000000     0.539550000000     0          
O        O      0.788150000000     0.907600000000     0.563875000000     0          
O        O      0.750000000000     0.926600000000     0.625000000000     0          
O        O      0.660000000000     0.908300000000     0.732500000000     0          
O        O      0.657500000000     0.926400000000     0.566650000000     0          
O        O      0.908200000000     0.907950000000     0.668700000000     0          
O        O      0.855000000000     0.936150000000     0.602150000000     0          
O        O      0.780450000000     0.937150000000     0.710450000000     0          
O        O      0.711850000000     0.907600000000     0.686125000000     0          
O        O      0.840000000000     0.908300000000     0.517500000000     0          
O        O      0.842500000000     0.926400000000     0.683350000000     0          
O        O      0.591800000000     0.907950000000     0.581300000000     0          
O        O      0.645000000000     0.936150000000     0.647850000000     0          
O        O      0.530450000000     0.812850000000     0.960450000000     0          
O        O      0.979550000000     0.750000000000     0.921225000000     0          
O        O      0.961850000000     0.842400000000     0.936125000000     0          
O        O      0.500000000000     0.823400000000     0.875000000000     0          
O        O      0.590000000000     0.841700000000     0.767500000000     0          
O        O      0.584750000000     0.750000000000     0.987200000000     0          
O        O      0.592500000000     0.823600000000     0.933350000000     0          
O        O      0.841800000000     0.842050000000     0.831300000000     0          
O        O      0.895000000000     0.813850000000     0.897850000000     0          
O        O      0.866400000000     0.750000000000     0.834700000000     0          
O        O      0.969550000000     0.812850000000     0.789550000000     0          
O        O      0.520450000000     0.750000000000     0.828775000000     0          
O        O      0.538150000000     0.842400000000     0.813875000000     0          
O        O      0.910000000000     0.841700000000     0.982500000000     0          
O        O      0.915250000000     0.750000000000     0.762800000000     0          
O        O      0.907500000000     0.823600000000     0.816650000000     0          
O        O      0.658200000000     0.842050000000     0.918700000000     0          
O        O      0.605000000000     0.813850000000     0.852150000000     0          
O        O      0.633600000000     0.750000000000     0.915300000000     0          
O        O      0.969550000000     0.687150000000     0.789550000000     0          
O        O      0.538150000000     0.657600000000     0.813875000000     0          
O        O      0.500000000000     0.676600000000     0.875000000000     0          
O        O      0.910000000000     0.658300000000     0.982500000000     0          
O        O      0.907500000000     0.676400000000     0.816650000000     0          
O        O      0.658200000000     0.657950000000     0.918700000000     0          
O        O      0.605000000000     0.686150000000     0.852150000000     0          
O        O      0.530450000000     0.687150000000     0.960450000000     0          
O        O      0.961850000000     0.657600000000     0.936125000000     0          
O        O      0.590000000000     0.658300000000     0.767500000000     0          
O        O      0.592500000000     0.676400000000     0.933350000000     0          
O        O      0.841800000000     0.657950000000     0.831300000000     0          
O        O      0.895000000000     0.686150000000     0.897850000000     0          
O        O      0.780450000000     0.562850000000     0.960450000000     0          
O        O      0.729550000000     0.500000000000     0.921225000000     0          
O        O      0.711850000000     0.592400000000     0.936125000000     0          
O        O      0.750000000000     0.573400000000     0.875000000000     0          
O        O      0.840000000000     0.591700000000     0.767500000000     0          
O        O      0.834750000000     0.500000000000     0.987200000000     0          
O        O      0.842500000000     0.573600000000     0.933350000000     0          
O        O      0.591800000000     0.592050000000     0.831300000000     0          
O        O      0.645000000000     0.563850000000     0.897850000000     0          
O        O      0.616400000000     0.500000000000     0.834700000000     0          
O        O      0.719550000000     0.562850000000     0.789550000000     0          
O        O      0.770450000000     0.500000000000     0.828775000000     0          
O        O      0.788150000000     0.592400000000     0.813875000000     0          
O        O      0.660000000000     0.591700000000     0.982500000000     0          
O        O      0.665250000000     0.500000000000     0.762800000000     0          
O        O      0.657500000000     0.573600000000     0.816650000000     0          
O        O      0.908200000000     0.592050000000     0.918700000000     0          
O        O      0.855000000000     0.563850000000     0.852150000000     0          
O        O      0.883600000000     0.500000000000     0.915300000000     0          
O        O      0.719550000000     0.937150000000     0.789550000000     0          
O        O      0.788150000000     0.907600000000     0.813875000000     0          
O        O      0.750000000000     0.926600000000     0.875000000000     0          
O        O      0.660000000000     0.908300000000     0.982500000000     0          
O        O      0.657500000000     0.926400000000     0.816650000000     0          
O        O      0.908200000000     0.907950000000     0.918700000000     0          
O        O      0.855000000000     0.936150000000     0.852150000000     0          
O        O      0.780450000000     0.937150000000     0.960450000000     0          
O        O      0.711850000000     0.907600000000     0.936125000000     0          
O        O      0.840000000000     0.908300000000     0.767500000000     0          
O        O      0.842500000000     0.926400000000     0.933350000000     0          
O        O      0.591800000000     0.907950000000     0.831300000000     0          
O        O      0.645000000000     0.936150000000     0.897850000000     0          


