data_zeolite

_audit_creation_method RASPA-1.0
_audit_creation_date 2021-6-6
_audit_author_name ''

_cell_length_a    26.856
_cell_length_b    26.856
_cell_length_c    26.275
_cell_angle_alpha 90
_cell_angle_beta  90
_cell_angle_gamma 90
_cell_volume      18950.7

_symmetry_cell_setting          tetragonal
_symmetry_space_group_name_Hall 'P 1'
_symmetry_space_group_name_H-M  'P 1'
_symmetry_Int_Tables_number     1

_symmetry_equiv_pos_as_xyz 'x,y,z'

loop_
_atom_site_label
_atom_site_type_symbol
_atom_site_fract_x
_atom_site_fract_y
_atom_site_fract_z
_atom_site_charge
O        O      0.083333333333     0.083333333333     0.050000000000     0          
O        O      0.000000000000     0.069300000000     0.000000000000     0          
T        Si     0.058966666667     0.058966666667     0.000000000000     0          
O        O      0.250000000000     0.083333333333     0.050000000000     0          
O        O      0.264033333333     0.000000000000     0.000000000000     0          
T        Si     0.274366666667     0.058966666667     0.000000000000     0          
O        O      0.250000000000     0.250000000000     0.050000000000     0          
O        O      0.000000000000     0.264033333333     0.000000000000     0          
T        Si     0.274366666667     0.274366666667     0.000000000000     0          
O        O      0.083333333333     0.250000000000     0.050000000000     0          
O        O      0.069300000000     0.000000000000     0.000000000000     0          
T        Si     0.058966666667     0.274366666667     0.000000000000     0          
O        O      0.083333333333     0.250000000000     0.150000000000     0          
O        O      0.083333333333     0.083333333333     0.150000000000     0          
O        O      0.250000000000     0.083333333333     0.150000000000     0          
O        O      0.250000000000     0.250000000000     0.150000000000     0          
O        O      0.166666666667     0.235966666667     0.100000000000     0          
T        Si     0.225633333333     0.225633333333     0.100000000000     0          
O        O      0.097366666667     0.166666666667     0.100000000000     0          
T        Si     0.107700000000     0.225633333333     0.100000000000     0          
O        O      0.166666666667     0.097366666667     0.100000000000     0          
T        Si     0.107700000000     0.107700000000     0.100000000000     0          
O        O      0.235966666667     0.166666666667     0.100000000000     0          
T        Si     0.225633333333     0.107700000000     0.100000000000     0          
O        O      0.083333333333     0.083333333333     0.250000000000     0          
O        O      0.000000000000     0.069300000000     0.200000000000     0          
T        Si     0.058966666667     0.058966666667     0.200000000000     0          
O        O      0.250000000000     0.083333333333     0.250000000000     0          
O        O      0.264033333333     0.000000000000     0.200000000000     0          
T        Si     0.274366666667     0.058966666667     0.200000000000     0          
O        O      0.250000000000     0.250000000000     0.250000000000     0          
O        O      0.000000000000     0.264033333333     0.200000000000     0          
T        Si     0.274366666667     0.274366666667     0.200000000000     0          
O        O      0.083333333333     0.250000000000     0.250000000000     0          
O        O      0.069300000000     0.000000000000     0.200000000000     0          
T        Si     0.058966666667     0.274366666667     0.200000000000     0          
O        O      0.083333333333     0.250000000000     0.350000000000     0          
O        O      0.083333333333     0.083333333333     0.350000000000     0          
O        O      0.250000000000     0.083333333333     0.350000000000     0          
O        O      0.250000000000     0.250000000000     0.350000000000     0          
O        O      0.166666666667     0.235966666667     0.300000000000     0          
T        Si     0.225633333333     0.225633333333     0.300000000000     0          
O        O      0.097366666667     0.166666666667     0.300000000000     0          
T        Si     0.107700000000     0.225633333333     0.300000000000     0          
O        O      0.166666666667     0.097366666667     0.300000000000     0          
T        Si     0.107700000000     0.107700000000     0.300000000000     0          
O        O      0.235966666667     0.166666666667     0.300000000000     0          
T        Si     0.225633333333     0.107700000000     0.300000000000     0          
O        O      0.083333333333     0.083333333333     0.450000000000     0          
O        O      0.000000000000     0.069300000000     0.400000000000     0          
T        Si     0.058966666667     0.058966666667     0.400000000000     0          
O        O      0.250000000000     0.083333333333     0.450000000000     0          
O        O      0.264033333333     0.000000000000     0.400000000000     0          
T        Si     0.274366666667     0.058966666667     0.400000000000     0          
O        O      0.250000000000     0.250000000000     0.450000000000     0          
O        O      0.000000000000     0.264033333333     0.400000000000     0          
T        Si     0.274366666667     0.274366666667     0.400000000000     0          
O        O      0.083333333333     0.250000000000     0.450000000000     0          
O        O      0.069300000000     0.000000000000     0.400000000000     0          
T        Si     0.058966666667     0.274366666667     0.400000000000     0          
O        O      0.083333333333     0.250000000000     0.550000000000     0          
O        O      0.083333333333     0.083333333333     0.550000000000     0          
O        O      0.250000000000     0.083333333333     0.550000000000     0          
O        O      0.250000000000     0.250000000000     0.550000000000     0          
O        O      0.166666666667     0.235966666667     0.500000000000     0          
T        Si     0.225633333333     0.225633333333     0.500000000000     0          
O        O      0.097366666667     0.166666666667     0.500000000000     0          
T        Si     0.107700000000     0.225633333333     0.500000000000     0          
O        O      0.166666666667     0.097366666667     0.500000000000     0          
T        Si     0.107700000000     0.107700000000     0.500000000000     0          
O        O      0.235966666667     0.166666666667     0.500000000000     0          
T        Si     0.225633333333     0.107700000000     0.500000000000     0          
O        O      0.083333333333     0.083333333333     0.650000000000     0          
O        O      0.000000000000     0.069300000000     0.600000000000     0          
T        Si     0.058966666667     0.058966666667     0.600000000000     0          
O        O      0.250000000000     0.083333333333     0.650000000000     0          
O        O      0.264033333333     0.000000000000     0.600000000000     0          
T        Si     0.274366666667     0.058966666667     0.600000000000     0          
O        O      0.250000000000     0.250000000000     0.650000000000     0          
O        O      0.000000000000     0.264033333333     0.600000000000     0          
T        Si     0.274366666667     0.274366666667     0.600000000000     0          
O        O      0.083333333333     0.250000000000     0.650000000000     0          
O        O      0.069300000000     0.000000000000     0.600000000000     0          
T        Si     0.058966666667     0.274366666667     0.600000000000     0          
O        O      0.083333333333     0.250000000000     0.750000000000     0          
O        O      0.083333333333     0.083333333333     0.750000000000     0          
O        O      0.250000000000     0.083333333333     0.750000000000     0          
O        O      0.250000000000     0.250000000000     0.750000000000     0          
O        O      0.166666666667     0.235966666667     0.700000000000     0          
T        Si     0.225633333333     0.225633333333     0.700000000000     0          
O        O      0.097366666667     0.166666666667     0.700000000000     0          
T        Si     0.107700000000     0.225633333333     0.700000000000     0          
O        O      0.166666666667     0.097366666667     0.700000000000     0          
T        Si     0.107700000000     0.107700000000     0.700000000000     0          
O        O      0.235966666667     0.166666666667     0.700000000000     0          
T        Si     0.225633333333     0.107700000000     0.700000000000     0          
O        O      0.083333333333     0.083333333333     0.850000000000     0          
O        O      0.000000000000     0.069300000000     0.800000000000     0          
T        Si     0.058966666667     0.058966666667     0.800000000000     0          
O        O      0.250000000000     0.083333333333     0.850000000000     0          
O        O      0.264033333333     0.000000000000     0.800000000000     0          
T        Si     0.274366666667     0.058966666667     0.800000000000     0          
O        O      0.250000000000     0.250000000000     0.850000000000     0          
O        O      0.000000000000     0.264033333333     0.800000000000     0          
T        Si     0.274366666667     0.274366666667     0.800000000000     0          
O        O      0.083333333333     0.250000000000     0.850000000000     0          
O        O      0.069300000000     0.000000000000     0.800000000000     0          
T        Si     0.058966666667     0.274366666667     0.800000000000     0          
O        O      0.083333333333     0.250000000000     0.950000000000     0          
O        O      0.083333333333     0.083333333333     0.950000000000     0          
O        O      0.250000000000     0.083333333333     0.950000000000     0          
O        O      0.250000000000     0.250000000000     0.950000000000     0          
O        O      0.166666666667     0.235966666667     0.900000000000     0          
T        Si     0.225633333333     0.225633333333     0.900000000000     0          
O        O      0.097366666667     0.166666666667     0.900000000000     0          
T        Si     0.107700000000     0.225633333333     0.900000000000     0          
O        O      0.166666666667     0.097366666667     0.900000000000     0          
T        Si     0.107700000000     0.107700000000     0.900000000000     0          
O        O      0.235966666667     0.166666666667     0.900000000000     0          
T        Si     0.225633333333     0.107700000000     0.900000000000     0          
O        O      0.083333333333     0.416666666667     0.050000000000     0          
O        O      0.000000000000     0.402633333333     0.000000000000     0          
T        Si     0.058966666667     0.392300000000     0.000000000000     0          
O        O      0.250000000000     0.416666666667     0.050000000000     0          
O        O      0.264033333333     0.333333333333     0.000000000000     0          
T        Si     0.274366666667     0.392300000000     0.000000000000     0          
O        O      0.250000000000     0.583333333333     0.050000000000     0          
O        O      0.000000000000     0.597366666667     0.000000000000     0          
T        Si     0.274366666667     0.607700000000     0.000000000000     0          
O        O      0.083333333333     0.583333333333     0.050000000000     0          
O        O      0.069300000000     0.333333333333     0.000000000000     0          
T        Si     0.058966666667     0.607700000000     0.000000000000     0          
O        O      0.083333333333     0.583333333333     0.150000000000     0          
O        O      0.083333333333     0.416666666667     0.150000000000     0          
O        O      0.250000000000     0.416666666667     0.150000000000     0          
O        O      0.250000000000     0.583333333333     0.150000000000     0          
O        O      0.166666666667     0.569300000000     0.100000000000     0          
T        Si     0.225633333333     0.558966666667     0.100000000000     0          
O        O      0.097366666667     0.500000000000     0.100000000000     0          
T        Si     0.107700000000     0.558966666667     0.100000000000     0          
O        O      0.166666666667     0.430700000000     0.100000000000     0          
T        Si     0.107700000000     0.441033333333     0.100000000000     0          
O        O      0.235966666667     0.500000000000     0.100000000000     0          
T        Si     0.225633333333     0.441033333333     0.100000000000     0          
O        O      0.083333333333     0.416666666667     0.250000000000     0          
O        O      0.000000000000     0.402633333333     0.200000000000     0          
T        Si     0.058966666667     0.392300000000     0.200000000000     0          
O        O      0.250000000000     0.416666666667     0.250000000000     0          
O        O      0.264033333333     0.333333333333     0.200000000000     0          
T        Si     0.274366666667     0.392300000000     0.200000000000     0          
O        O      0.250000000000     0.583333333333     0.250000000000     0          
O        O      0.000000000000     0.597366666667     0.200000000000     0          
T        Si     0.274366666667     0.607700000000     0.200000000000     0          
O        O      0.083333333333     0.583333333333     0.250000000000     0          
O        O      0.069300000000     0.333333333333     0.200000000000     0          
T        Si     0.058966666667     0.607700000000     0.200000000000     0          
O        O      0.083333333333     0.583333333333     0.350000000000     0          
O        O      0.083333333333     0.416666666667     0.350000000000     0          
O        O      0.250000000000     0.416666666667     0.350000000000     0          
O        O      0.250000000000     0.583333333333     0.350000000000     0          
O        O      0.166666666667     0.569300000000     0.300000000000     0          
T        Si     0.225633333333     0.558966666667     0.300000000000     0          
O        O      0.097366666667     0.500000000000     0.300000000000     0          
T        Si     0.107700000000     0.558966666667     0.300000000000     0          
O        O      0.166666666667     0.430700000000     0.300000000000     0          
T        Si     0.107700000000     0.441033333333     0.300000000000     0          
O        O      0.235966666667     0.500000000000     0.300000000000     0          
T        Si     0.225633333333     0.441033333333     0.300000000000     0          
O        O      0.083333333333     0.416666666667     0.450000000000     0          
O        O      0.000000000000     0.402633333333     0.400000000000     0          
T        Si     0.058966666667     0.392300000000     0.400000000000     0          
O        O      0.250000000000     0.416666666667     0.450000000000     0          
O        O      0.264033333333     0.333333333333     0.400000000000     0          
T        Si     0.274366666667     0.392300000000     0.400000000000     0          
O        O      0.250000000000     0.583333333333     0.450000000000     0          
O        O      0.000000000000     0.597366666667     0.400000000000     0          
T        Si     0.274366666667     0.607700000000     0.400000000000     0          
O        O      0.083333333333     0.583333333333     0.450000000000     0          
O        O      0.069300000000     0.333333333333     0.400000000000     0          
T        Si     0.058966666667     0.607700000000     0.400000000000     0          
O        O      0.083333333333     0.583333333333     0.550000000000     0          
O        O      0.083333333333     0.416666666667     0.550000000000     0          
O        O      0.250000000000     0.416666666667     0.550000000000     0          
O        O      0.250000000000     0.583333333333     0.550000000000     0          
O        O      0.166666666667     0.569300000000     0.500000000000     0          
T        Si     0.225633333333     0.558966666667     0.500000000000     0          
O        O      0.097366666667     0.500000000000     0.500000000000     0          
T        Si     0.107700000000     0.558966666667     0.500000000000     0          
O        O      0.166666666667     0.430700000000     0.500000000000     0          
T        Si     0.107700000000     0.441033333333     0.500000000000     0          
O        O      0.235966666667     0.500000000000     0.500000000000     0          
T        Si     0.225633333333     0.441033333333     0.500000000000     0          
O        O      0.083333333333     0.416666666667     0.650000000000     0          
O        O      0.000000000000     0.402633333333     0.600000000000     0          
T        Si     0.058966666667     0.392300000000     0.600000000000     0          
O        O      0.250000000000     0.416666666667     0.650000000000     0          
O        O      0.264033333333     0.333333333333     0.600000000000     0          
T        Si     0.274366666667     0.392300000000     0.600000000000     0          
O        O      0.250000000000     0.583333333333     0.650000000000     0          
O        O      0.000000000000     0.597366666667     0.600000000000     0          
T        Si     0.274366666667     0.607700000000     0.600000000000     0          
O        O      0.083333333333     0.583333333333     0.650000000000     0          
O        O      0.069300000000     0.333333333333     0.600000000000     0          
T        Si     0.058966666667     0.607700000000     0.600000000000     0          
O        O      0.083333333333     0.583333333333     0.750000000000     0          
O        O      0.083333333333     0.416666666667     0.750000000000     0          
O        O      0.250000000000     0.416666666667     0.750000000000     0          
O        O      0.250000000000     0.583333333333     0.750000000000     0          
O        O      0.166666666667     0.569300000000     0.700000000000     0          
T        Si     0.225633333333     0.558966666667     0.700000000000     0          
O        O      0.097366666667     0.500000000000     0.700000000000     0          
T        Si     0.107700000000     0.558966666667     0.700000000000     0          
O        O      0.166666666667     0.430700000000     0.700000000000     0          
T        Si     0.107700000000     0.441033333333     0.700000000000     0          
O        O      0.235966666667     0.500000000000     0.700000000000     0          
T        Si     0.225633333333     0.441033333333     0.700000000000     0          
O        O      0.083333333333     0.416666666667     0.850000000000     0          
O        O      0.000000000000     0.402633333333     0.800000000000     0          
T        Si     0.058966666667     0.392300000000     0.800000000000     0          
O        O      0.250000000000     0.416666666667     0.850000000000     0          
O        O      0.264033333333     0.333333333333     0.800000000000     0          
T        Si     0.274366666667     0.392300000000     0.800000000000     0          
O        O      0.250000000000     0.583333333333     0.850000000000     0          
O        O      0.000000000000     0.597366666667     0.800000000000     0          
T        Si     0.274366666667     0.607700000000     0.800000000000     0          
O        O      0.083333333333     0.583333333333     0.850000000000     0          
O        O      0.069300000000     0.333333333333     0.800000000000     0          
T        Si     0.058966666667     0.607700000000     0.800000000000     0          
O        O      0.083333333333     0.583333333333     0.950000000000     0          
O        O      0.083333333333     0.416666666667     0.950000000000     0          
O        O      0.250000000000     0.416666666667     0.950000000000     0          
O        O      0.250000000000     0.583333333333     0.950000000000     0          
O        O      0.166666666667     0.569300000000     0.900000000000     0          
T        Si     0.225633333333     0.558966666667     0.900000000000     0          
O        O      0.097366666667     0.500000000000     0.900000000000     0          
T        Si     0.107700000000     0.558966666667     0.900000000000     0          
O        O      0.166666666667     0.430700000000     0.900000000000     0          
T        Si     0.107700000000     0.441033333333     0.900000000000     0          
O        O      0.235966666667     0.500000000000     0.900000000000     0          
T        Si     0.225633333333     0.441033333333     0.900000000000     0          
O        O      0.083333333333     0.750000000000     0.050000000000     0          
O        O      0.000000000000     0.735966666667     0.000000000000     0          
T        Si     0.058966666667     0.725633333333     0.000000000000     0          
O        O      0.250000000000     0.750000000000     0.050000000000     0          
O        O      0.264033333333     0.666666666667     0.000000000000     0          
T        Si     0.274366666667     0.725633333333     0.000000000000     0          
O        O      0.250000000000     0.916666666667     0.050000000000     0          
O        O      0.000000000000     0.930700000000     0.000000000000     0          
T        Si     0.274366666667     0.941033333333     0.000000000000     0          
O        O      0.083333333333     0.916666666667     0.050000000000     0          
O        O      0.069300000000     0.666666666667     0.000000000000     0          
T        Si     0.058966666667     0.941033333333     0.000000000000     0          
O        O      0.083333333333     0.916666666667     0.150000000000     0          
O        O      0.083333333333     0.750000000000     0.150000000000     0          
O        O      0.250000000000     0.750000000000     0.150000000000     0          
O        O      0.250000000000     0.916666666667     0.150000000000     0          
O        O      0.166666666667     0.902633333333     0.100000000000     0          
T        Si     0.225633333333     0.892300000000     0.100000000000     0          
O        O      0.097366666667     0.833333333333     0.100000000000     0          
T        Si     0.107700000000     0.892300000000     0.100000000000     0          
O        O      0.166666666667     0.764033333333     0.100000000000     0          
T        Si     0.107700000000     0.774366666667     0.100000000000     0          
O        O      0.235966666667     0.833333333333     0.100000000000     0          
T        Si     0.225633333333     0.774366666667     0.100000000000     0          
O        O      0.083333333333     0.750000000000     0.250000000000     0          
O        O      0.000000000000     0.735966666667     0.200000000000     0          
T        Si     0.058966666667     0.725633333333     0.200000000000     0          
O        O      0.250000000000     0.750000000000     0.250000000000     0          
O        O      0.264033333333     0.666666666667     0.200000000000     0          
T        Si     0.274366666667     0.725633333333     0.200000000000     0          
O        O      0.250000000000     0.916666666667     0.250000000000     0          
O        O      0.000000000000     0.930700000000     0.200000000000     0          
T        Si     0.274366666667     0.941033333333     0.200000000000     0          
O        O      0.083333333333     0.916666666667     0.250000000000     0          
O        O      0.069300000000     0.666666666667     0.200000000000     0          
T        Si     0.058966666667     0.941033333333     0.200000000000     0          
O        O      0.083333333333     0.916666666667     0.350000000000     0          
O        O      0.083333333333     0.750000000000     0.350000000000     0          
O        O      0.250000000000     0.750000000000     0.350000000000     0          
O        O      0.250000000000     0.916666666667     0.350000000000     0          
O        O      0.166666666667     0.902633333333     0.300000000000     0          
T        Si     0.225633333333     0.892300000000     0.300000000000     0          
O        O      0.097366666667     0.833333333333     0.300000000000     0          
T        Si     0.107700000000     0.892300000000     0.300000000000     0          
O        O      0.166666666667     0.764033333333     0.300000000000     0          
T        Si     0.107700000000     0.774366666667     0.300000000000     0          
O        O      0.235966666667     0.833333333333     0.300000000000     0          
T        Si     0.225633333333     0.774366666667     0.300000000000     0          
O        O      0.083333333333     0.750000000000     0.450000000000     0          
O        O      0.000000000000     0.735966666667     0.400000000000     0          
T        Si     0.058966666667     0.725633333333     0.400000000000     0          
O        O      0.250000000000     0.750000000000     0.450000000000     0          
O        O      0.264033333333     0.666666666667     0.400000000000     0          
T        Si     0.274366666667     0.725633333333     0.400000000000     0          
O        O      0.250000000000     0.916666666667     0.450000000000     0          
O        O      0.000000000000     0.930700000000     0.400000000000     0          
T        Si     0.274366666667     0.941033333333     0.400000000000     0          
O        O      0.083333333333     0.916666666667     0.450000000000     0          
O        O      0.069300000000     0.666666666667     0.400000000000     0          
T        Si     0.058966666667     0.941033333333     0.400000000000     0          
O        O      0.083333333333     0.916666666667     0.550000000000     0          
O        O      0.083333333333     0.750000000000     0.550000000000     0          
O        O      0.250000000000     0.750000000000     0.550000000000     0          
O        O      0.250000000000     0.916666666667     0.550000000000     0          
O        O      0.166666666667     0.902633333333     0.500000000000     0          
T        Si     0.225633333333     0.892300000000     0.500000000000     0          
O        O      0.097366666667     0.833333333333     0.500000000000     0          
T        Si     0.107700000000     0.892300000000     0.500000000000     0          
O        O      0.166666666667     0.764033333333     0.500000000000     0          
T        Si     0.107700000000     0.774366666667     0.500000000000     0          
O        O      0.235966666667     0.833333333333     0.500000000000     0          
T        Si     0.225633333333     0.774366666667     0.500000000000     0          
O        O      0.083333333333     0.750000000000     0.650000000000     0          
O        O      0.000000000000     0.735966666667     0.600000000000     0          
T        Si     0.058966666667     0.725633333333     0.600000000000     0          
O        O      0.250000000000     0.750000000000     0.650000000000     0          
O        O      0.264033333333     0.666666666667     0.600000000000     0          
T        Si     0.274366666667     0.725633333333     0.600000000000     0          
O        O      0.250000000000     0.916666666667     0.650000000000     0          
O        O      0.000000000000     0.930700000000     0.600000000000     0          
T        Si     0.274366666667     0.941033333333     0.600000000000     0          
O        O      0.083333333333     0.916666666667     0.650000000000     0          
O        O      0.069300000000     0.666666666667     0.600000000000     0          
T        Si     0.058966666667     0.941033333333     0.600000000000     0          
O        O      0.083333333333     0.916666666667     0.750000000000     0          
O        O      0.083333333333     0.750000000000     0.750000000000     0          
O        O      0.250000000000     0.750000000000     0.750000000000     0          
O        O      0.250000000000     0.916666666667     0.750000000000     0          
O        O      0.166666666667     0.902633333333     0.700000000000     0          
T        Si     0.225633333333     0.892300000000     0.700000000000     0          
O        O      0.097366666667     0.833333333333     0.700000000000     0          
T        Si     0.107700000000     0.892300000000     0.700000000000     0          
O        O      0.166666666667     0.764033333333     0.700000000000     0          
T        Si     0.107700000000     0.774366666667     0.700000000000     0          
O        O      0.235966666667     0.833333333333     0.700000000000     0          
T        Si     0.225633333333     0.774366666667     0.700000000000     0          
O        O      0.083333333333     0.750000000000     0.850000000000     0          
O        O      0.000000000000     0.735966666667     0.800000000000     0          
T        Si     0.058966666667     0.725633333333     0.800000000000     0          
O        O      0.250000000000     0.750000000000     0.850000000000     0          
O        O      0.264033333333     0.666666666667     0.800000000000     0          
T        Si     0.274366666667     0.725633333333     0.800000000000     0          
O        O      0.250000000000     0.916666666667     0.850000000000     0          
O        O      0.000000000000     0.930700000000     0.800000000000     0          
T        Si     0.274366666667     0.941033333333     0.800000000000     0          
O        O      0.083333333333     0.916666666667     0.850000000000     0          
O        O      0.069300000000     0.666666666667     0.800000000000     0          
T        Si     0.058966666667     0.941033333333     0.800000000000     0          
O        O      0.083333333333     0.916666666667     0.950000000000     0          
O        O      0.083333333333     0.750000000000     0.950000000000     0          
O        O      0.250000000000     0.750000000000     0.950000000000     0          
O        O      0.250000000000     0.916666666667     0.950000000000     0          
O        O      0.166666666667     0.902633333333     0.900000000000     0          
T        Si     0.225633333333     0.892300000000     0.900000000000     0          
O        O      0.097366666667     0.833333333333     0.900000000000     0          
T        Si     0.107700000000     0.892300000000     0.900000000000     0          
O        O      0.166666666667     0.764033333333     0.900000000000     0          
T        Si     0.107700000000     0.774366666667     0.900000000000     0          
O        O      0.235966666667     0.833333333333     0.900000000000     0          
T        Si     0.225633333333     0.774366666667     0.900000000000     0          
O        O      0.416666666667     0.083333333333     0.050000000000     0          
O        O      0.333333333333     0.069300000000     0.000000000000     0          
T        Si     0.392300000000     0.058966666667     0.000000000000     0          
O        O      0.583333333333     0.083333333333     0.050000000000     0          
O        O      0.597366666667     0.000000000000     0.000000000000     0          
T        Si     0.607700000000     0.058966666667     0.000000000000     0          
O        O      0.583333333333     0.250000000000     0.050000000000     0          
O        O      0.333333333333     0.264033333333     0.000000000000     0          
T        Si     0.607700000000     0.274366666667     0.000000000000     0          
O        O      0.416666666667     0.250000000000     0.050000000000     0          
O        O      0.402633333333     0.000000000000     0.000000000000     0          
T        Si     0.392300000000     0.274366666667     0.000000000000     0          
O        O      0.416666666667     0.250000000000     0.150000000000     0          
O        O      0.416666666667     0.083333333333     0.150000000000     0          
O        O      0.583333333333     0.083333333333     0.150000000000     0          
O        O      0.583333333333     0.250000000000     0.150000000000     0          
O        O      0.500000000000     0.235966666667     0.100000000000     0          
T        Si     0.558966666667     0.225633333333     0.100000000000     0          
O        O      0.430700000000     0.166666666667     0.100000000000     0          
T        Si     0.441033333333     0.225633333333     0.100000000000     0          
O        O      0.500000000000     0.097366666667     0.100000000000     0          
T        Si     0.441033333333     0.107700000000     0.100000000000     0          
O        O      0.569300000000     0.166666666667     0.100000000000     0          
T        Si     0.558966666667     0.107700000000     0.100000000000     0          
O        O      0.416666666667     0.083333333333     0.250000000000     0          
O        O      0.333333333333     0.069300000000     0.200000000000     0          
T        Si     0.392300000000     0.058966666667     0.200000000000     0          
O        O      0.583333333333     0.083333333333     0.250000000000     0          
O        O      0.597366666667     0.000000000000     0.200000000000     0          
T        Si     0.607700000000     0.058966666667     0.200000000000     0          
O        O      0.583333333333     0.250000000000     0.250000000000     0          
O        O      0.333333333333     0.264033333333     0.200000000000     0          
T        Si     0.607700000000     0.274366666667     0.200000000000     0          
O        O      0.416666666667     0.250000000000     0.250000000000     0          
O        O      0.402633333333     0.000000000000     0.200000000000     0          
T        Si     0.392300000000     0.274366666667     0.200000000000     0          
O        O      0.416666666667     0.250000000000     0.350000000000     0          
O        O      0.416666666667     0.083333333333     0.350000000000     0          
O        O      0.583333333333     0.083333333333     0.350000000000     0          
O        O      0.583333333333     0.250000000000     0.350000000000     0          
O        O      0.500000000000     0.235966666667     0.300000000000     0          
T        Si     0.558966666667     0.225633333333     0.300000000000     0          
O        O      0.430700000000     0.166666666667     0.300000000000     0          
T        Si     0.441033333333     0.225633333333     0.300000000000     0          
O        O      0.500000000000     0.097366666667     0.300000000000     0          
T        Si     0.441033333333     0.107700000000     0.300000000000     0          
O        O      0.569300000000     0.166666666667     0.300000000000     0          
T        Si     0.558966666667     0.107700000000     0.300000000000     0          
O        O      0.416666666667     0.083333333333     0.450000000000     0          
O        O      0.333333333333     0.069300000000     0.400000000000     0          
T        Si     0.392300000000     0.058966666667     0.400000000000     0          
O        O      0.583333333333     0.083333333333     0.450000000000     0          
O        O      0.597366666667     0.000000000000     0.400000000000     0          
T        Si     0.607700000000     0.058966666667     0.400000000000     0          
O        O      0.583333333333     0.250000000000     0.450000000000     0          
O        O      0.333333333333     0.264033333333     0.400000000000     0          
T        Si     0.607700000000     0.274366666667     0.400000000000     0          
O        O      0.416666666667     0.250000000000     0.450000000000     0          
O        O      0.402633333333     0.000000000000     0.400000000000     0          
T        Si     0.392300000000     0.274366666667     0.400000000000     0          
O        O      0.416666666667     0.250000000000     0.550000000000     0          
O        O      0.416666666667     0.083333333333     0.550000000000     0          
O        O      0.583333333333     0.083333333333     0.550000000000     0          
O        O      0.583333333333     0.250000000000     0.550000000000     0          
O        O      0.500000000000     0.235966666667     0.500000000000     0          
T        Si     0.558966666667     0.225633333333     0.500000000000     0          
O        O      0.430700000000     0.166666666667     0.500000000000     0          
T        Si     0.441033333333     0.225633333333     0.500000000000     0          
O        O      0.500000000000     0.097366666667     0.500000000000     0          
T        Si     0.441033333333     0.107700000000     0.500000000000     0          
O        O      0.569300000000     0.166666666667     0.500000000000     0          
T        Si     0.558966666667     0.107700000000     0.500000000000     0          
O        O      0.416666666667     0.083333333333     0.650000000000     0          
O        O      0.333333333333     0.069300000000     0.600000000000     0          
T        Si     0.392300000000     0.058966666667     0.600000000000     0          
O        O      0.583333333333     0.083333333333     0.650000000000     0          
O        O      0.597366666667     0.000000000000     0.600000000000     0          
T        Si     0.607700000000     0.058966666667     0.600000000000     0          
O        O      0.583333333333     0.250000000000     0.650000000000     0          
O        O      0.333333333333     0.264033333333     0.600000000000     0          
T        Si     0.607700000000     0.274366666667     0.600000000000     0          
O        O      0.416666666667     0.250000000000     0.650000000000     0          
O        O      0.402633333333     0.000000000000     0.600000000000     0          
T        Si     0.392300000000     0.274366666667     0.600000000000     0          
O        O      0.416666666667     0.250000000000     0.750000000000     0          
O        O      0.416666666667     0.083333333333     0.750000000000     0          
O        O      0.583333333333     0.083333333333     0.750000000000     0          
O        O      0.583333333333     0.250000000000     0.750000000000     0          
O        O      0.500000000000     0.235966666667     0.700000000000     0          
T        Si     0.558966666667     0.225633333333     0.700000000000     0          
O        O      0.430700000000     0.166666666667     0.700000000000     0          
T        Si     0.441033333333     0.225633333333     0.700000000000     0          
O        O      0.500000000000     0.097366666667     0.700000000000     0          
T        Si     0.441033333333     0.107700000000     0.700000000000     0          
O        O      0.569300000000     0.166666666667     0.700000000000     0          
T        Si     0.558966666667     0.107700000000     0.700000000000     0          
O        O      0.416666666667     0.083333333333     0.850000000000     0          
O        O      0.333333333333     0.069300000000     0.800000000000     0          
T        Si     0.392300000000     0.058966666667     0.800000000000     0          
O        O      0.583333333333     0.083333333333     0.850000000000     0          
O        O      0.597366666667     0.000000000000     0.800000000000     0          
T        Si     0.607700000000     0.058966666667     0.800000000000     0          
O        O      0.583333333333     0.250000000000     0.850000000000     0          
O        O      0.333333333333     0.264033333333     0.800000000000     0          
T        Si     0.607700000000     0.274366666667     0.800000000000     0          
O        O      0.416666666667     0.250000000000     0.850000000000     0          
O        O      0.402633333333     0.000000000000     0.800000000000     0          
T        Si     0.392300000000     0.274366666667     0.800000000000     0          
O        O      0.416666666667     0.250000000000     0.950000000000     0          
O        O      0.416666666667     0.083333333333     0.950000000000     0          
O        O      0.583333333333     0.083333333333     0.950000000000     0          
O        O      0.583333333333     0.250000000000     0.950000000000     0          
O        O      0.500000000000     0.235966666667     0.900000000000     0          
T        Si     0.558966666667     0.225633333333     0.900000000000     0          
O        O      0.430700000000     0.166666666667     0.900000000000     0          
T        Si     0.441033333333     0.225633333333     0.900000000000     0          
O        O      0.500000000000     0.097366666667     0.900000000000     0          
T        Si     0.441033333333     0.107700000000     0.900000000000     0          
O        O      0.569300000000     0.166666666667     0.900000000000     0          
T        Si     0.558966666667     0.107700000000     0.900000000000     0          
O        O      0.416666666667     0.416666666667     0.050000000000     0          
O        O      0.333333333333     0.402633333333     0.000000000000     0          
T        Si     0.392300000000     0.392300000000     0.000000000000     0          
O        O      0.583333333333     0.416666666667     0.050000000000     0          
O        O      0.597366666667     0.333333333333     0.000000000000     0          
T        Si     0.607700000000     0.392300000000     0.000000000000     0          
O        O      0.583333333333     0.583333333333     0.050000000000     0          
O        O      0.333333333333     0.597366666667     0.000000000000     0          
T        Si     0.607700000000     0.607700000000     0.000000000000     0          
O        O      0.416666666667     0.583333333333     0.050000000000     0          
O        O      0.402633333333     0.333333333333     0.000000000000     0          
T        Si     0.392300000000     0.607700000000     0.000000000000     0          
O        O      0.416666666667     0.583333333333     0.150000000000     0          
O        O      0.416666666667     0.416666666667     0.150000000000     0          
O        O      0.583333333333     0.416666666667     0.150000000000     0          
O        O      0.583333333333     0.583333333333     0.150000000000     0          
O        O      0.500000000000     0.569300000000     0.100000000000     0          
T        Si     0.558966666667     0.558966666667     0.100000000000     0          
O        O      0.430700000000     0.500000000000     0.100000000000     0          
T        Si     0.441033333333     0.558966666667     0.100000000000     0          
O        O      0.500000000000     0.430700000000     0.100000000000     0          
T        Si     0.441033333333     0.441033333333     0.100000000000     0          
O        O      0.569300000000     0.500000000000     0.100000000000     0          
T        Si     0.558966666667     0.441033333333     0.100000000000     0          
O        O      0.416666666667     0.416666666667     0.250000000000     0          
O        O      0.333333333333     0.402633333333     0.200000000000     0          
T        Si     0.392300000000     0.392300000000     0.200000000000     0          
O        O      0.583333333333     0.416666666667     0.250000000000     0          
O        O      0.597366666667     0.333333333333     0.200000000000     0          
T        Si     0.607700000000     0.392300000000     0.200000000000     0          
O        O      0.583333333333     0.583333333333     0.250000000000     0          
O        O      0.333333333333     0.597366666667     0.200000000000     0          
T        Si     0.607700000000     0.607700000000     0.200000000000     0          
O        O      0.416666666667     0.583333333333     0.250000000000     0          
O        O      0.402633333333     0.333333333333     0.200000000000     0          
T        Si     0.392300000000     0.607700000000     0.200000000000     0          
O        O      0.416666666667     0.583333333333     0.350000000000     0          
O        O      0.416666666667     0.416666666667     0.350000000000     0          
O        O      0.583333333333     0.416666666667     0.350000000000     0          
O        O      0.583333333333     0.583333333333     0.350000000000     0          
O        O      0.500000000000     0.569300000000     0.300000000000     0          
T        Si     0.558966666667     0.558966666667     0.300000000000     0          
O        O      0.430700000000     0.500000000000     0.300000000000     0          
T        Si     0.441033333333     0.558966666667     0.300000000000     0          
O        O      0.500000000000     0.430700000000     0.300000000000     0          
T        Si     0.441033333333     0.441033333333     0.300000000000     0          
O        O      0.569300000000     0.500000000000     0.300000000000     0          
T        Si     0.558966666667     0.441033333333     0.300000000000     0          
O        O      0.416666666667     0.416666666667     0.450000000000     0          
O        O      0.333333333333     0.402633333333     0.400000000000     0          
T        Si     0.392300000000     0.392300000000     0.400000000000     0          
O        O      0.583333333333     0.416666666667     0.450000000000     0          
O        O      0.597366666667     0.333333333333     0.400000000000     0          
T        Si     0.607700000000     0.392300000000     0.400000000000     0          
O        O      0.583333333333     0.583333333333     0.450000000000     0          
O        O      0.333333333333     0.597366666667     0.400000000000     0          
T        Si     0.607700000000     0.607700000000     0.400000000000     0          
O        O      0.416666666667     0.583333333333     0.450000000000     0          
O        O      0.402633333333     0.333333333333     0.400000000000     0          
T        Si     0.392300000000     0.607700000000     0.400000000000     0          
O        O      0.416666666667     0.583333333333     0.550000000000     0          
O        O      0.416666666667     0.416666666667     0.550000000000     0          
O        O      0.583333333333     0.416666666667     0.550000000000     0          
O        O      0.583333333333     0.583333333333     0.550000000000     0          
O        O      0.500000000000     0.569300000000     0.500000000000     0          
T        Si     0.558966666667     0.558966666667     0.500000000000     0          
O        O      0.430700000000     0.500000000000     0.500000000000     0          
T        Si     0.441033333333     0.558966666667     0.500000000000     0          
O        O      0.500000000000     0.430700000000     0.500000000000     0          
T        Si     0.441033333333     0.441033333333     0.500000000000     0          
O        O      0.569300000000     0.500000000000     0.500000000000     0          
T        Si     0.558966666667     0.441033333333     0.500000000000     0          
O        O      0.416666666667     0.416666666667     0.650000000000     0          
O        O      0.333333333333     0.402633333333     0.600000000000     0          
T        Si     0.392300000000     0.392300000000     0.600000000000     0          
O        O      0.583333333333     0.416666666667     0.650000000000     0          
O        O      0.597366666667     0.333333333333     0.600000000000     0          
T        Si     0.607700000000     0.392300000000     0.600000000000     0          
O        O      0.583333333333     0.583333333333     0.650000000000     0          
O        O      0.333333333333     0.597366666667     0.600000000000     0          
T        Si     0.607700000000     0.607700000000     0.600000000000     0          
O        O      0.416666666667     0.583333333333     0.650000000000     0          
O        O      0.402633333333     0.333333333333     0.600000000000     0          
T        Si     0.392300000000     0.607700000000     0.600000000000     0          
O        O      0.416666666667     0.583333333333     0.750000000000     0          
O        O      0.416666666667     0.416666666667     0.750000000000     0          
O        O      0.583333333333     0.416666666667     0.750000000000     0          
O        O      0.583333333333     0.583333333333     0.750000000000     0          
O        O      0.500000000000     0.569300000000     0.700000000000     0          
T        Si     0.558966666667     0.558966666667     0.700000000000     0          
O        O      0.430700000000     0.500000000000     0.700000000000     0          
T        Si     0.441033333333     0.558966666667     0.700000000000     0          
O        O      0.500000000000     0.430700000000     0.700000000000     0          
T        Si     0.441033333333     0.441033333333     0.700000000000     0          
O        O      0.569300000000     0.500000000000     0.700000000000     0          
T        Si     0.558966666667     0.441033333333     0.700000000000     0          
O        O      0.416666666667     0.416666666667     0.850000000000     0          
O        O      0.333333333333     0.402633333333     0.800000000000     0          
T        Si     0.392300000000     0.392300000000     0.800000000000     0          
O        O      0.583333333333     0.416666666667     0.850000000000     0          
O        O      0.597366666667     0.333333333333     0.800000000000     0          
T        Si     0.607700000000     0.392300000000     0.800000000000     0          
O        O      0.583333333333     0.583333333333     0.850000000000     0          
O        O      0.333333333333     0.597366666667     0.800000000000     0          
T        Si     0.607700000000     0.607700000000     0.800000000000     0          
O        O      0.416666666667     0.583333333333     0.850000000000     0          
O        O      0.402633333333     0.333333333333     0.800000000000     0          
T        Si     0.392300000000     0.607700000000     0.800000000000     0          
O        O      0.416666666667     0.583333333333     0.950000000000     0          
O        O      0.416666666667     0.416666666667     0.950000000000     0          
O        O      0.583333333333     0.416666666667     0.950000000000     0          
O        O      0.583333333333     0.583333333333     0.950000000000     0          
O        O      0.500000000000     0.569300000000     0.900000000000     0          
T        Si     0.558966666667     0.558966666667     0.900000000000     0          
O        O      0.430700000000     0.500000000000     0.900000000000     0          
T        Si     0.441033333333     0.558966666667     0.900000000000     0          
O        O      0.500000000000     0.430700000000     0.900000000000     0          
T        Si     0.441033333333     0.441033333333     0.900000000000     0          
O        O      0.569300000000     0.500000000000     0.900000000000     0          
T        Si     0.558966666667     0.441033333333     0.900000000000     0          
O        O      0.416666666667     0.750000000000     0.050000000000     0          
O        O      0.333333333333     0.735966666667     0.000000000000     0          
T        Si     0.392300000000     0.725633333333     0.000000000000     0          
O        O      0.583333333333     0.750000000000     0.050000000000     0          
O        O      0.597366666667     0.666666666667     0.000000000000     0          
T        Si     0.607700000000     0.725633333333     0.000000000000     0          
O        O      0.583333333333     0.916666666667     0.050000000000     0          
O        O      0.333333333333     0.930700000000     0.000000000000     0          
T        Si     0.607700000000     0.941033333333     0.000000000000     0          
O        O      0.416666666667     0.916666666667     0.050000000000     0          
O        O      0.402633333333     0.666666666667     0.000000000000     0          
T        Si     0.392300000000     0.941033333333     0.000000000000     0          
O        O      0.416666666667     0.916666666667     0.150000000000     0          
O        O      0.416666666667     0.750000000000     0.150000000000     0          
O        O      0.583333333333     0.750000000000     0.150000000000     0          
O        O      0.583333333333     0.916666666667     0.150000000000     0          
O        O      0.500000000000     0.902633333333     0.100000000000     0          
T        Si     0.558966666667     0.892300000000     0.100000000000     0          
O        O      0.430700000000     0.833333333333     0.100000000000     0          
T        Si     0.441033333333     0.892300000000     0.100000000000     0          
O        O      0.500000000000     0.764033333333     0.100000000000     0          
T        Si     0.441033333333     0.774366666667     0.100000000000     0          
O        O      0.569300000000     0.833333333333     0.100000000000     0          
T        Si     0.558966666667     0.774366666667     0.100000000000     0          
O        O      0.416666666667     0.750000000000     0.250000000000     0          
O        O      0.333333333333     0.735966666667     0.200000000000     0          
T        Si     0.392300000000     0.725633333333     0.200000000000     0          
O        O      0.583333333333     0.750000000000     0.250000000000     0          
O        O      0.597366666667     0.666666666667     0.200000000000     0          
T        Si     0.607700000000     0.725633333333     0.200000000000     0          
O        O      0.583333333333     0.916666666667     0.250000000000     0          
O        O      0.333333333333     0.930700000000     0.200000000000     0          
T        Si     0.607700000000     0.941033333333     0.200000000000     0          
O        O      0.416666666667     0.916666666667     0.250000000000     0          
O        O      0.402633333333     0.666666666667     0.200000000000     0          
T        Si     0.392300000000     0.941033333333     0.200000000000     0          
O        O      0.416666666667     0.916666666667     0.350000000000     0          
O        O      0.416666666667     0.750000000000     0.350000000000     0          
O        O      0.583333333333     0.750000000000     0.350000000000     0          
O        O      0.583333333333     0.916666666667     0.350000000000     0          
O        O      0.500000000000     0.902633333333     0.300000000000     0          
T        Si     0.558966666667     0.892300000000     0.300000000000     0          
O        O      0.430700000000     0.833333333333     0.300000000000     0          
T        Si     0.441033333333     0.892300000000     0.300000000000     0          
O        O      0.500000000000     0.764033333333     0.300000000000     0          
T        Si     0.441033333333     0.774366666667     0.300000000000     0          
O        O      0.569300000000     0.833333333333     0.300000000000     0          
T        Si     0.558966666667     0.774366666667     0.300000000000     0          
O        O      0.416666666667     0.750000000000     0.450000000000     0          
O        O      0.333333333333     0.735966666667     0.400000000000     0          
T        Si     0.392300000000     0.725633333333     0.400000000000     0          
O        O      0.583333333333     0.750000000000     0.450000000000     0          
O        O      0.597366666667     0.666666666667     0.400000000000     0          
T        Si     0.607700000000     0.725633333333     0.400000000000     0          
O        O      0.583333333333     0.916666666667     0.450000000000     0          
O        O      0.333333333333     0.930700000000     0.400000000000     0          
T        Si     0.607700000000     0.941033333333     0.400000000000     0          
O        O      0.416666666667     0.916666666667     0.450000000000     0          
O        O      0.402633333333     0.666666666667     0.400000000000     0          
T        Si     0.392300000000     0.941033333333     0.400000000000     0          
O        O      0.416666666667     0.916666666667     0.550000000000     0          
O        O      0.416666666667     0.750000000000     0.550000000000     0          
O        O      0.583333333333     0.750000000000     0.550000000000     0          
O        O      0.583333333333     0.916666666667     0.550000000000     0          
O        O      0.500000000000     0.902633333333     0.500000000000     0          
T        Si     0.558966666667     0.892300000000     0.500000000000     0          
O        O      0.430700000000     0.833333333333     0.500000000000     0          
T        Si     0.441033333333     0.892300000000     0.500000000000     0          
O        O      0.500000000000     0.764033333333     0.500000000000     0          
T        Si     0.441033333333     0.774366666667     0.500000000000     0          
O        O      0.569300000000     0.833333333333     0.500000000000     0          
T        Si     0.558966666667     0.774366666667     0.500000000000     0          
O        O      0.416666666667     0.750000000000     0.650000000000     0          
O        O      0.333333333333     0.735966666667     0.600000000000     0          
T        Si     0.392300000000     0.725633333333     0.600000000000     0          
O        O      0.583333333333     0.750000000000     0.650000000000     0          
O        O      0.597366666667     0.666666666667     0.600000000000     0          
T        Si     0.607700000000     0.725633333333     0.600000000000     0          
O        O      0.583333333333     0.916666666667     0.650000000000     0          
O        O      0.333333333333     0.930700000000     0.600000000000     0          
T        Si     0.607700000000     0.941033333333     0.600000000000     0          
O        O      0.416666666667     0.916666666667     0.650000000000     0          
O        O      0.402633333333     0.666666666667     0.600000000000     0          
T        Si     0.392300000000     0.941033333333     0.600000000000     0          
O        O      0.416666666667     0.916666666667     0.750000000000     0          
O        O      0.416666666667     0.750000000000     0.750000000000     0          
O        O      0.583333333333     0.750000000000     0.750000000000     0          
O        O      0.583333333333     0.916666666667     0.750000000000     0          
O        O      0.500000000000     0.902633333333     0.700000000000     0          
T        Si     0.558966666667     0.892300000000     0.700000000000     0          
O        O      0.430700000000     0.833333333333     0.700000000000     0          
T        Si     0.441033333333     0.892300000000     0.700000000000     0          
O        O      0.500000000000     0.764033333333     0.700000000000     0          
T        Si     0.441033333333     0.774366666667     0.700000000000     0          
O        O      0.569300000000     0.833333333333     0.700000000000     0          
T        Si     0.558966666667     0.774366666667     0.700000000000     0          
O        O      0.416666666667     0.750000000000     0.850000000000     0          
O        O      0.333333333333     0.735966666667     0.800000000000     0          
T        Si     0.392300000000     0.725633333333     0.800000000000     0          
O        O      0.583333333333     0.750000000000     0.850000000000     0          
O        O      0.597366666667     0.666666666667     0.800000000000     0          
T        Si     0.607700000000     0.725633333333     0.800000000000     0          
O        O      0.583333333333     0.916666666667     0.850000000000     0          
O        O      0.333333333333     0.930700000000     0.800000000000     0          
T        Si     0.607700000000     0.941033333333     0.800000000000     0          
O        O      0.416666666667     0.916666666667     0.850000000000     0          
O        O      0.402633333333     0.666666666667     0.800000000000     0          
T        Si     0.392300000000     0.941033333333     0.800000000000     0          
O        O      0.416666666667     0.916666666667     0.950000000000     0          
O        O      0.416666666667     0.750000000000     0.950000000000     0          
O        O      0.583333333333     0.750000000000     0.950000000000     0          
O        O      0.583333333333     0.916666666667     0.950000000000     0          
O        O      0.500000000000     0.902633333333     0.900000000000     0          
T        Si     0.558966666667     0.892300000000     0.900000000000     0          
O        O      0.430700000000     0.833333333333     0.900000000000     0          
T        Si     0.441033333333     0.892300000000     0.900000000000     0          
O        O      0.500000000000     0.764033333333     0.900000000000     0          
T        Si     0.441033333333     0.774366666667     0.900000000000     0          
O        O      0.569300000000     0.833333333333     0.900000000000     0          
T        Si     0.558966666667     0.774366666667     0.900000000000     0          
O        O      0.750000000000     0.083333333333     0.050000000000     0          
O        O      0.666666666667     0.069300000000     0.000000000000     0          
T        Si     0.725633333333     0.058966666667     0.000000000000     0          
O        O      0.916666666667     0.083333333333     0.050000000000     0          
O        O      0.930700000000     0.000000000000     0.000000000000     0          
T        Si     0.941033333333     0.058966666667     0.000000000000     0          
O        O      0.916666666667     0.250000000000     0.050000000000     0          
O        O      0.666666666667     0.264033333333     0.000000000000     0          
T        Si     0.941033333333     0.274366666667     0.000000000000     0          
O        O      0.750000000000     0.250000000000     0.050000000000     0          
O        O      0.735966666667     0.000000000000     0.000000000000     0          
T        Si     0.725633333333     0.274366666667     0.000000000000     0          
O        O      0.750000000000     0.250000000000     0.150000000000     0          
O        O      0.750000000000     0.083333333333     0.150000000000     0          
O        O      0.916666666667     0.083333333333     0.150000000000     0          
O        O      0.916666666667     0.250000000000     0.150000000000     0          
O        O      0.833333333333     0.235966666667     0.100000000000     0          
T        Si     0.892300000000     0.225633333333     0.100000000000     0          
O        O      0.764033333333     0.166666666667     0.100000000000     0          
T        Si     0.774366666667     0.225633333333     0.100000000000     0          
O        O      0.833333333333     0.097366666667     0.100000000000     0          
T        Si     0.774366666667     0.107700000000     0.100000000000     0          
O        O      0.902633333333     0.166666666667     0.100000000000     0          
T        Si     0.892300000000     0.107700000000     0.100000000000     0          
O        O      0.750000000000     0.083333333333     0.250000000000     0          
O        O      0.666666666667     0.069300000000     0.200000000000     0          
T        Si     0.725633333333     0.058966666667     0.200000000000     0          
O        O      0.916666666667     0.083333333333     0.250000000000     0          
O        O      0.930700000000     0.000000000000     0.200000000000     0          
T        Si     0.941033333333     0.058966666667     0.200000000000     0          
O        O      0.916666666667     0.250000000000     0.250000000000     0          
O        O      0.666666666667     0.264033333333     0.200000000000     0          
T        Si     0.941033333333     0.274366666667     0.200000000000     0          
O        O      0.750000000000     0.250000000000     0.250000000000     0          
O        O      0.735966666667     0.000000000000     0.200000000000     0          
T        Si     0.725633333333     0.274366666667     0.200000000000     0          
O        O      0.750000000000     0.250000000000     0.350000000000     0          
O        O      0.750000000000     0.083333333333     0.350000000000     0          
O        O      0.916666666667     0.083333333333     0.350000000000     0          
O        O      0.916666666667     0.250000000000     0.350000000000     0          
O        O      0.833333333333     0.235966666667     0.300000000000     0          
T        Si     0.892300000000     0.225633333333     0.300000000000     0          
O        O      0.764033333333     0.166666666667     0.300000000000     0          
T        Si     0.774366666667     0.225633333333     0.300000000000     0          
O        O      0.833333333333     0.097366666667     0.300000000000     0          
T        Si     0.774366666667     0.107700000000     0.300000000000     0          
O        O      0.902633333333     0.166666666667     0.300000000000     0          
T        Si     0.892300000000     0.107700000000     0.300000000000     0          
O        O      0.750000000000     0.083333333333     0.450000000000     0          
O        O      0.666666666667     0.069300000000     0.400000000000     0          
T        Si     0.725633333333     0.058966666667     0.400000000000     0          
O        O      0.916666666667     0.083333333333     0.450000000000     0          
O        O      0.930700000000     0.000000000000     0.400000000000     0          
T        Si     0.941033333333     0.058966666667     0.400000000000     0          
O        O      0.916666666667     0.250000000000     0.450000000000     0          
O        O      0.666666666667     0.264033333333     0.400000000000     0          
T        Si     0.941033333333     0.274366666667     0.400000000000     0          
O        O      0.750000000000     0.250000000000     0.450000000000     0          
O        O      0.735966666667     0.000000000000     0.400000000000     0          
T        Si     0.725633333333     0.274366666667     0.400000000000     0          
O        O      0.750000000000     0.250000000000     0.550000000000     0          
O        O      0.750000000000     0.083333333333     0.550000000000     0          
O        O      0.916666666667     0.083333333333     0.550000000000     0          
O        O      0.916666666667     0.250000000000     0.550000000000     0          
O        O      0.833333333333     0.235966666667     0.500000000000     0          
T        Si     0.892300000000     0.225633333333     0.500000000000     0          
O        O      0.764033333333     0.166666666667     0.500000000000     0          
T        Si     0.774366666667     0.225633333333     0.500000000000     0          
O        O      0.833333333333     0.097366666667     0.500000000000     0          
T        Si     0.774366666667     0.107700000000     0.500000000000     0          
O        O      0.902633333333     0.166666666667     0.500000000000     0          
T        Si     0.892300000000     0.107700000000     0.500000000000     0          
O        O      0.750000000000     0.083333333333     0.650000000000     0          
O        O      0.666666666667     0.069300000000     0.600000000000     0          
T        Si     0.725633333333     0.058966666667     0.600000000000     0          
O        O      0.916666666667     0.083333333333     0.650000000000     0          
O        O      0.930700000000     0.000000000000     0.600000000000     0          
T        Si     0.941033333333     0.058966666667     0.600000000000     0          
O        O      0.916666666667     0.250000000000     0.650000000000     0          
O        O      0.666666666667     0.264033333333     0.600000000000     0          
T        Si     0.941033333333     0.274366666667     0.600000000000     0          
O        O      0.750000000000     0.250000000000     0.650000000000     0          
O        O      0.735966666667     0.000000000000     0.600000000000     0          
T        Si     0.725633333333     0.274366666667     0.600000000000     0          
O        O      0.750000000000     0.250000000000     0.750000000000     0          
O        O      0.750000000000     0.083333333333     0.750000000000     0          
O        O      0.916666666667     0.083333333333     0.750000000000     0          
O        O      0.916666666667     0.250000000000     0.750000000000     0          
O        O      0.833333333333     0.235966666667     0.700000000000     0          
T        Si     0.892300000000     0.225633333333     0.700000000000     0          
O        O      0.764033333333     0.166666666667     0.700000000000     0          
T        Si     0.774366666667     0.225633333333     0.700000000000     0          
O        O      0.833333333333     0.097366666667     0.700000000000     0          
T        Si     0.774366666667     0.107700000000     0.700000000000     0          
O        O      0.902633333333     0.166666666667     0.700000000000     0          
T        Si     0.892300000000     0.107700000000     0.700000000000     0          
O        O      0.750000000000     0.083333333333     0.850000000000     0          
O        O      0.666666666667     0.069300000000     0.800000000000     0          
T        Si     0.725633333333     0.058966666667     0.800000000000     0          
O        O      0.916666666667     0.083333333333     0.850000000000     0          
O        O      0.930700000000     0.000000000000     0.800000000000     0          
T        Si     0.941033333333     0.058966666667     0.800000000000     0          
O        O      0.916666666667     0.250000000000     0.850000000000     0          
O        O      0.666666666667     0.264033333333     0.800000000000     0          
T        Si     0.941033333333     0.274366666667     0.800000000000     0          
O        O      0.750000000000     0.250000000000     0.850000000000     0          
O        O      0.735966666667     0.000000000000     0.800000000000     0          
T        Si     0.725633333333     0.274366666667     0.800000000000     0          
O        O      0.750000000000     0.250000000000     0.950000000000     0          
O        O      0.750000000000     0.083333333333     0.950000000000     0          
O        O      0.916666666667     0.083333333333     0.950000000000     0          
O        O      0.916666666667     0.250000000000     0.950000000000     0          
O        O      0.833333333333     0.235966666667     0.900000000000     0          
T        Si     0.892300000000     0.225633333333     0.900000000000     0          
O        O      0.764033333333     0.166666666667     0.900000000000     0          
T        Si     0.774366666667     0.225633333333     0.900000000000     0          
O        O      0.833333333333     0.097366666667     0.900000000000     0          
T        Si     0.774366666667     0.107700000000     0.900000000000     0          
O        O      0.902633333333     0.166666666667     0.900000000000     0          
T        Si     0.892300000000     0.107700000000     0.900000000000     0          
O        O      0.750000000000     0.416666666667     0.050000000000     0          
O        O      0.666666666667     0.402633333333     0.000000000000     0          
T        Si     0.725633333333     0.392300000000     0.000000000000     0          
O        O      0.916666666667     0.416666666667     0.050000000000     0          
O        O      0.930700000000     0.333333333333     0.000000000000     0          
T        Si     0.941033333333     0.392300000000     0.000000000000     0          
O        O      0.916666666667     0.583333333333     0.050000000000     0          
O        O      0.666666666667     0.597366666667     0.000000000000     0          
T        Si     0.941033333333     0.607700000000     0.000000000000     0          
O        O      0.750000000000     0.583333333333     0.050000000000     0          
O        O      0.735966666667     0.333333333333     0.000000000000     0          
T        Si     0.725633333333     0.607700000000     0.000000000000     0          
O        O      0.750000000000     0.583333333333     0.150000000000     0          
O        O      0.750000000000     0.416666666667     0.150000000000     0          
O        O      0.916666666667     0.416666666667     0.150000000000     0          
O        O      0.916666666667     0.583333333333     0.150000000000     0          
O        O      0.833333333333     0.569300000000     0.100000000000     0          
T        Si     0.892300000000     0.558966666667     0.100000000000     0          
O        O      0.764033333333     0.500000000000     0.100000000000     0          
T        Si     0.774366666667     0.558966666667     0.100000000000     0          
O        O      0.833333333333     0.430700000000     0.100000000000     0          
T        Si     0.774366666667     0.441033333333     0.100000000000     0          
O        O      0.902633333333     0.500000000000     0.100000000000     0          
T        Si     0.892300000000     0.441033333333     0.100000000000     0          
O        O      0.750000000000     0.416666666667     0.250000000000     0          
O        O      0.666666666667     0.402633333333     0.200000000000     0          
T        Si     0.725633333333     0.392300000000     0.200000000000     0          
O        O      0.916666666667     0.416666666667     0.250000000000     0          
O        O      0.930700000000     0.333333333333     0.200000000000     0          
T        Si     0.941033333333     0.392300000000     0.200000000000     0          
O        O      0.916666666667     0.583333333333     0.250000000000     0          
O        O      0.666666666667     0.597366666667     0.200000000000     0          
T        Si     0.941033333333     0.607700000000     0.200000000000     0          
O        O      0.750000000000     0.583333333333     0.250000000000     0          
O        O      0.735966666667     0.333333333333     0.200000000000     0          
T        Si     0.725633333333     0.607700000000     0.200000000000     0          
O        O      0.750000000000     0.583333333333     0.350000000000     0          
O        O      0.750000000000     0.416666666667     0.350000000000     0          
O        O      0.916666666667     0.416666666667     0.350000000000     0          
O        O      0.916666666667     0.583333333333     0.350000000000     0          
O        O      0.833333333333     0.569300000000     0.300000000000     0          
T        Si     0.892300000000     0.558966666667     0.300000000000     0          
O        O      0.764033333333     0.500000000000     0.300000000000     0          
T        Si     0.774366666667     0.558966666667     0.300000000000     0          
O        O      0.833333333333     0.430700000000     0.300000000000     0          
T        Si     0.774366666667     0.441033333333     0.300000000000     0          
O        O      0.902633333333     0.500000000000     0.300000000000     0          
T        Si     0.892300000000     0.441033333333     0.300000000000     0          
O        O      0.750000000000     0.416666666667     0.450000000000     0          
O        O      0.666666666667     0.402633333333     0.400000000000     0          
T        Si     0.725633333333     0.392300000000     0.400000000000     0          
O        O      0.916666666667     0.416666666667     0.450000000000     0          
O        O      0.930700000000     0.333333333333     0.400000000000     0          
T        Si     0.941033333333     0.392300000000     0.400000000000     0          
O        O      0.916666666667     0.583333333333     0.450000000000     0          
O        O      0.666666666667     0.597366666667     0.400000000000     0          
T        Si     0.941033333333     0.607700000000     0.400000000000     0          
O        O      0.750000000000     0.583333333333     0.450000000000     0          
O        O      0.735966666667     0.333333333333     0.400000000000     0          
T        Si     0.725633333333     0.607700000000     0.400000000000     0          
O        O      0.750000000000     0.583333333333     0.550000000000     0          
O        O      0.750000000000     0.416666666667     0.550000000000     0          
O        O      0.916666666667     0.416666666667     0.550000000000     0          
O        O      0.916666666667     0.583333333333     0.550000000000     0          
O        O      0.833333333333     0.569300000000     0.500000000000     0          
T        Si     0.892300000000     0.558966666667     0.500000000000     0          
O        O      0.764033333333     0.500000000000     0.500000000000     0          
T        Si     0.774366666667     0.558966666667     0.500000000000     0          
O        O      0.833333333333     0.430700000000     0.500000000000     0          
T        Si     0.774366666667     0.441033333333     0.500000000000     0          
O        O      0.902633333333     0.500000000000     0.500000000000     0          
T        Si     0.892300000000     0.441033333333     0.500000000000     0          
O        O      0.750000000000     0.416666666667     0.650000000000     0          
O        O      0.666666666667     0.402633333333     0.600000000000     0          
T        Si     0.725633333333     0.392300000000     0.600000000000     0          
O        O      0.916666666667     0.416666666667     0.650000000000     0          
O        O      0.930700000000     0.333333333333     0.600000000000     0          
T        Si     0.941033333333     0.392300000000     0.600000000000     0          
O        O      0.916666666667     0.583333333333     0.650000000000     0          
O        O      0.666666666667     0.597366666667     0.600000000000     0          
T        Si     0.941033333333     0.607700000000     0.600000000000     0          
O        O      0.750000000000     0.583333333333     0.650000000000     0          
O        O      0.735966666667     0.333333333333     0.600000000000     0          
T        Si     0.725633333333     0.607700000000     0.600000000000     0          
O        O      0.750000000000     0.583333333333     0.750000000000     0          
O        O      0.750000000000     0.416666666667     0.750000000000     0          
O        O      0.916666666667     0.416666666667     0.750000000000     0          
O        O      0.916666666667     0.583333333333     0.750000000000     0          
O        O      0.833333333333     0.569300000000     0.700000000000     0          
T        Si     0.892300000000     0.558966666667     0.700000000000     0          
O        O      0.764033333333     0.500000000000     0.700000000000     0          
T        Si     0.774366666667     0.558966666667     0.700000000000     0          
O        O      0.833333333333     0.430700000000     0.700000000000     0          
T        Si     0.774366666667     0.441033333333     0.700000000000     0          
O        O      0.902633333333     0.500000000000     0.700000000000     0          
T        Si     0.892300000000     0.441033333333     0.700000000000     0          
O        O      0.750000000000     0.416666666667     0.850000000000     0          
O        O      0.666666666667     0.402633333333     0.800000000000     0          
T        Si     0.725633333333     0.392300000000     0.800000000000     0          
O        O      0.916666666667     0.416666666667     0.850000000000     0          
O        O      0.930700000000     0.333333333333     0.800000000000     0          
T        Si     0.941033333333     0.392300000000     0.800000000000     0          
O        O      0.916666666667     0.583333333333     0.850000000000     0          
O        O      0.666666666667     0.597366666667     0.800000000000     0          
T        Si     0.941033333333     0.607700000000     0.800000000000     0          
O        O      0.750000000000     0.583333333333     0.850000000000     0          
O        O      0.735966666667     0.333333333333     0.800000000000     0          
T        Si     0.725633333333     0.607700000000     0.800000000000     0          
O        O      0.750000000000     0.583333333333     0.950000000000     0          
O        O      0.750000000000     0.416666666667     0.950000000000     0          
O        O      0.916666666667     0.416666666667     0.950000000000     0          
O        O      0.916666666667     0.583333333333     0.950000000000     0          
O        O      0.833333333333     0.569300000000     0.900000000000     0          
T        Si     0.892300000000     0.558966666667     0.900000000000     0          
O        O      0.764033333333     0.500000000000     0.900000000000     0          
T        Si     0.774366666667     0.558966666667     0.900000000000     0          
O        O      0.833333333333     0.430700000000     0.900000000000     0          
T        Si     0.774366666667     0.441033333333     0.900000000000     0          
O        O      0.902633333333     0.500000000000     0.900000000000     0          
T        Si     0.892300000000     0.441033333333     0.900000000000     0          
O        O      0.750000000000     0.750000000000     0.050000000000     0          
O        O      0.666666666667     0.735966666667     0.000000000000     0          
T        Si     0.725633333333     0.725633333333     0.000000000000     0          
O        O      0.916666666667     0.750000000000     0.050000000000     0          
O        O      0.930700000000     0.666666666667     0.000000000000     0          
T        Si     0.941033333333     0.725633333333     0.000000000000     0          
O        O      0.916666666667     0.916666666667     0.050000000000     0          
O        O      0.666666666667     0.930700000000     0.000000000000     0          
T        Si     0.941033333333     0.941033333333     0.000000000000     0          
O        O      0.750000000000     0.916666666667     0.050000000000     0          
O        O      0.735966666667     0.666666666667     0.000000000000     0          
T        Si     0.725633333333     0.941033333333     0.000000000000     0          
O        O      0.750000000000     0.916666666667     0.150000000000     0          
O        O      0.750000000000     0.750000000000     0.150000000000     0          
O        O      0.916666666667     0.750000000000     0.150000000000     0          
O        O      0.916666666667     0.916666666667     0.150000000000     0          
O        O      0.833333333333     0.902633333333     0.100000000000     0          
T        Si     0.892300000000     0.892300000000     0.100000000000     0          
O        O      0.764033333333     0.833333333333     0.100000000000     0          
T        Si     0.774366666667     0.892300000000     0.100000000000     0          
O        O      0.833333333333     0.764033333333     0.100000000000     0          
T        Si     0.774366666667     0.774366666667     0.100000000000     0          
O        O      0.902633333333     0.833333333333     0.100000000000     0          
T        Si     0.892300000000     0.774366666667     0.100000000000     0          
O        O      0.750000000000     0.750000000000     0.250000000000     0          
O        O      0.666666666667     0.735966666667     0.200000000000     0          
T        Si     0.725633333333     0.725633333333     0.200000000000     0          
O        O      0.916666666667     0.750000000000     0.250000000000     0          
O        O      0.930700000000     0.666666666667     0.200000000000     0          
T        Si     0.941033333333     0.725633333333     0.200000000000     0          
O        O      0.916666666667     0.916666666667     0.250000000000     0          
O        O      0.666666666667     0.930700000000     0.200000000000     0          
T        Si     0.941033333333     0.941033333333     0.200000000000     0          
O        O      0.750000000000     0.916666666667     0.250000000000     0          
O        O      0.735966666667     0.666666666667     0.200000000000     0          
T        Si     0.725633333333     0.941033333333     0.200000000000     0          
O        O      0.750000000000     0.916666666667     0.350000000000     0          
O        O      0.750000000000     0.750000000000     0.350000000000     0          
O        O      0.916666666667     0.750000000000     0.350000000000     0          
O        O      0.916666666667     0.916666666667     0.350000000000     0          
O        O      0.833333333333     0.902633333333     0.300000000000     0          
T        Si     0.892300000000     0.892300000000     0.300000000000     0          
O        O      0.764033333333     0.833333333333     0.300000000000     0          
T        Si     0.774366666667     0.892300000000     0.300000000000     0          
O        O      0.833333333333     0.764033333333     0.300000000000     0          
T        Si     0.774366666667     0.774366666667     0.300000000000     0          
O        O      0.902633333333     0.833333333333     0.300000000000     0          
T        Si     0.892300000000     0.774366666667     0.300000000000     0          
O        O      0.750000000000     0.750000000000     0.450000000000     0          
O        O      0.666666666667     0.735966666667     0.400000000000     0          
T        Si     0.725633333333     0.725633333333     0.400000000000     0          
O        O      0.916666666667     0.750000000000     0.450000000000     0          
O        O      0.930700000000     0.666666666667     0.400000000000     0          
T        Si     0.941033333333     0.725633333333     0.400000000000     0          
O        O      0.916666666667     0.916666666667     0.450000000000     0          
O        O      0.666666666667     0.930700000000     0.400000000000     0          
T        Si     0.941033333333     0.941033333333     0.400000000000     0          
O        O      0.750000000000     0.916666666667     0.450000000000     0          
O        O      0.735966666667     0.666666666667     0.400000000000     0          
T        Si     0.725633333333     0.941033333333     0.400000000000     0          
O        O      0.750000000000     0.916666666667     0.550000000000     0          
O        O      0.750000000000     0.750000000000     0.550000000000     0          
O        O      0.916666666667     0.750000000000     0.550000000000     0          
O        O      0.916666666667     0.916666666667     0.550000000000     0          
O        O      0.833333333333     0.902633333333     0.500000000000     0          
T        Si     0.892300000000     0.892300000000     0.500000000000     0          
O        O      0.764033333333     0.833333333333     0.500000000000     0          
T        Si     0.774366666667     0.892300000000     0.500000000000     0          
O        O      0.833333333333     0.764033333333     0.500000000000     0          
T        Si     0.774366666667     0.774366666667     0.500000000000     0          
O        O      0.902633333333     0.833333333333     0.500000000000     0          
T        Si     0.892300000000     0.774366666667     0.500000000000     0          
O        O      0.750000000000     0.750000000000     0.650000000000     0          
O        O      0.666666666667     0.735966666667     0.600000000000     0          
T        Si     0.725633333333     0.725633333333     0.600000000000     0          
O        O      0.916666666667     0.750000000000     0.650000000000     0          
O        O      0.930700000000     0.666666666667     0.600000000000     0          
T        Si     0.941033333333     0.725633333333     0.600000000000     0          
O        O      0.916666666667     0.916666666667     0.650000000000     0          
O        O      0.666666666667     0.930700000000     0.600000000000     0          
T        Si     0.941033333333     0.941033333333     0.600000000000     0          
O        O      0.750000000000     0.916666666667     0.650000000000     0          
O        O      0.735966666667     0.666666666667     0.600000000000     0          
T        Si     0.725633333333     0.941033333333     0.600000000000     0          
O        O      0.750000000000     0.916666666667     0.750000000000     0          
O        O      0.750000000000     0.750000000000     0.750000000000     0          
O        O      0.916666666667     0.750000000000     0.750000000000     0          
O        O      0.916666666667     0.916666666667     0.750000000000     0          
O        O      0.833333333333     0.902633333333     0.700000000000     0          
T        Si     0.892300000000     0.892300000000     0.700000000000     0          
O        O      0.764033333333     0.833333333333     0.700000000000     0          
T        Si     0.774366666667     0.892300000000     0.700000000000     0          
O        O      0.833333333333     0.764033333333     0.700000000000     0          
T        Si     0.774366666667     0.774366666667     0.700000000000     0          
O        O      0.902633333333     0.833333333333     0.700000000000     0          
T        Si     0.892300000000     0.774366666667     0.700000000000     0          
O        O      0.750000000000     0.750000000000     0.850000000000     0          
O        O      0.666666666667     0.735966666667     0.800000000000     0          
T        Si     0.725633333333     0.725633333333     0.800000000000     0          
O        O      0.916666666667     0.750000000000     0.850000000000     0          
O        O      0.930700000000     0.666666666667     0.800000000000     0          
T        Si     0.941033333333     0.725633333333     0.800000000000     0          
O        O      0.916666666667     0.916666666667     0.850000000000     0          
O        O      0.666666666667     0.930700000000     0.800000000000     0          
T        Si     0.941033333333     0.941033333333     0.800000000000     0          
O        O      0.750000000000     0.916666666667     0.850000000000     0          
O        O      0.735966666667     0.666666666667     0.800000000000     0          
T        Si     0.725633333333     0.941033333333     0.800000000000     0          
O        O      0.750000000000     0.916666666667     0.950000000000     0          
O        O      0.750000000000     0.750000000000     0.950000000000     0          
O        O      0.916666666667     0.750000000000     0.950000000000     0          
O        O      0.916666666667     0.916666666667     0.950000000000     0          
O        O      0.833333333333     0.902633333333     0.900000000000     0          
T        Si     0.892300000000     0.892300000000     0.900000000000     0          
O        O      0.764033333333     0.833333333333     0.900000000000     0          
T        Si     0.774366666667     0.892300000000     0.900000000000     0          
O        O      0.833333333333     0.764033333333     0.900000000000     0          
T        Si     0.774366666667     0.774366666667     0.900000000000     0          
O        O      0.902633333333     0.833333333333     0.900000000000     0          
T        Si     0.892300000000     0.774366666667     0.900000000000     0          


