data_zeolite

_audit_creation_method RASPA-1.0
_audit_creation_date 2021-6-6
_audit_author_name ''

_cell_length_a    30.699
_cell_length_b    37.674
_cell_length_c    43.434
_cell_angle_alpha 90
_cell_angle_beta  90
_cell_angle_gamma 90
_cell_volume      50233.8

_symmetry_cell_setting          orthorhombic
_symmetry_space_group_name_Hall 'P 1'
_symmetry_space_group_name_H-M  'P 1'
_symmetry_Int_Tables_number     1

_symmetry_equiv_pos_as_xyz 'x,y,z'

loop_
_atom_site_label
_atom_site_type_symbol
_atom_site_fract_x
_atom_site_fract_y
_atom_site_fract_z
_atom_site_charge
O        O      0.064333333333     0.150233333333     0.027100000000     0          
O        O      0.123766666667     0.126000000000     0.065700000000     0          
O        O      0.042833333333     0.134233333333     0.084000000000     0          
O        O      0.063000000000     0.083333333333     0.045250000000     0          
O        O      0.000000000000     0.147266666667     0.314650000000     0          
O        O      0.000000000000     0.185633333333     0.364900000000     0          
O        O      0.000000000000     0.250000000000     0.387450000000     0          
O        O      0.042766666667     0.301966666667     0.236450000000     0          
O        O      0.000000000000     0.250000000000     0.208950000000     0          
T        Si     0.073466666667     0.123600000000     0.055400000000     0          
T        Si     0.000000000000     0.187200000000     0.327900000000     0          
T        Si     0.000000000000     0.291466666667     0.396250000000     0          
T        Si     0.000000000000     0.291666666667     0.217000000000     0          
T        Si     0.072733333333     0.166666666667     0.250000000000     0          
O        O      0.269000000000     0.016433333333     0.027100000000     0          
O        O      0.209566666667     0.040666666667     0.065700000000     0          
O        O      0.290500000000     0.032433333333     0.084000000000     0          
O        O      0.270333333333     0.083333333333     0.045250000000     0          
O        O      0.000000000000     0.019400000000     0.314650000000     0          
O        O      0.000000000000     0.314366666667     0.364900000000     0          
O        O      0.290566666667     0.198033333333     0.236450000000     0          
T        Si     0.259866666667     0.043066666667     0.055400000000     0          
T        Si     0.000000000000     0.312800000000     0.327900000000     0          
T        Si     0.000000000000     0.208533333333     0.396250000000     0          
T        Si     0.000000000000     0.208333333333     0.217000000000     0          
T        Si     0.260600000000     0.000000000000     0.250000000000     0          
O        O      0.064333333333     0.183100000000     0.472900000000     0          
O        O      0.123766666667     0.207333333333     0.434300000000     0          
O        O      0.042833333333     0.199100000000     0.416000000000     0          
O        O      0.063000000000     0.250000000000     0.454750000000     0          
O        O      0.000000000000     0.186066666667     0.185350000000     0          
O        O      0.000000000000     0.147700000000     0.135100000000     0          
O        O      0.000000000000     0.083333333333     0.112550000000     0          
O        O      0.042766666667     0.031366666667     0.263550000000     0          
O        O      0.000000000000     0.083333333333     0.291050000000     0          
T        Si     0.073466666667     0.209733333333     0.444600000000     0          
T        Si     0.000000000000     0.146133333333     0.172100000000     0          
T        Si     0.000000000000     0.041866666667     0.103750000000     0          
T        Si     0.000000000000     0.041666666667     0.283000000000     0          
O        O      0.269000000000     0.316900000000     0.472900000000     0          
O        O      0.209566666667     0.292666666667     0.434300000000     0          
O        O      0.290500000000     0.300900000000     0.416000000000     0          
O        O      0.270333333333     0.250000000000     0.454750000000     0          
O        O      0.000000000000     0.313933333333     0.185350000000     0          
O        O      0.000000000000     0.018966666667     0.135100000000     0          
O        O      0.290566666667     0.135300000000     0.263550000000     0          
T        Si     0.259866666667     0.290266666667     0.444600000000     0          
T        Si     0.000000000000     0.020533333333     0.172100000000     0          
T        Si     0.000000000000     0.124800000000     0.103750000000     0          
T        Si     0.000000000000     0.125000000000     0.283000000000     0          
O        O      0.269000000000     0.183100000000     0.472900000000     0          
O        O      0.209566666667     0.207333333333     0.434300000000     0          
O        O      0.290500000000     0.199100000000     0.416000000000     0          
O        O      0.290566666667     0.031366666667     0.263550000000     0          
T        Si     0.259866666667     0.209733333333     0.444600000000     0          
T        Si     0.260600000000     0.166666666667     0.250000000000     0          
O        O      0.064333333333     0.316900000000     0.472900000000     0          
O        O      0.123766666667     0.292666666667     0.434300000000     0          
O        O      0.042833333333     0.300900000000     0.416000000000     0          
O        O      0.042766666667     0.135300000000     0.263550000000     0          
T        Si     0.073466666667     0.290266666667     0.444600000000     0          
T        Si     0.072733333333     0.000000000000     0.250000000000     0          
O        O      0.269000000000     0.150233333333     0.027100000000     0          
O        O      0.209566666667     0.126000000000     0.065700000000     0          
O        O      0.290500000000     0.134233333333     0.084000000000     0          
O        O      0.290566666667     0.301966666667     0.236450000000     0          
T        Si     0.259866666667     0.123600000000     0.055400000000     0          
O        O      0.064333333333     0.016433333333     0.027100000000     0          
O        O      0.123766666667     0.040666666667     0.065700000000     0          
O        O      0.042833333333     0.032433333333     0.084000000000     0          
O        O      0.042766666667     0.198033333333     0.236450000000     0          
T        Si     0.073466666667     0.043066666667     0.055400000000     0          
O        O      0.231000000000     0.316900000000     0.277100000000     0          
O        O      0.290433333333     0.292666666667     0.315700000000     0          
O        O      0.209500000000     0.300900000000     0.334000000000     0          
O        O      0.229666666667     0.250000000000     0.295250000000     0          
O        O      0.166666666667     0.313933333333     0.064650000000     0          
O        O      0.166666666667     0.018966666667     0.114900000000     0          
O        O      0.166666666667     0.083333333333     0.137450000000     0          
O        O      0.209433333333     0.135300000000     0.486450000000     0          
O        O      0.166666666667     0.083333333333     0.458950000000     0          
T        Si     0.240133333333     0.290266666667     0.305400000000     0          
T        Si     0.166666666667     0.020533333333     0.077900000000     0          
T        Si     0.166666666667     0.124800000000     0.146250000000     0          
T        Si     0.166666666667     0.125000000000     0.467000000000     0          
T        Si     0.239400000000     0.000000000000     0.000000000000     0          
O        O      0.102333333333     0.183100000000     0.277100000000     0          
O        O      0.042900000000     0.207333333333     0.315700000000     0          
O        O      0.123833333333     0.199100000000     0.334000000000     0          
O        O      0.103666666667     0.250000000000     0.295250000000     0          
O        O      0.166666666667     0.186066666667     0.064650000000     0          
O        O      0.166666666667     0.147700000000     0.114900000000     0          
O        O      0.123900000000     0.031366666667     0.486450000000     0          
T        Si     0.093200000000     0.209733333333     0.305400000000     0          
T        Si     0.166666666667     0.146133333333     0.077900000000     0          
T        Si     0.166666666667     0.041866666667     0.146250000000     0          
T        Si     0.166666666667     0.041666666667     0.467000000000     0          
T        Si     0.093933333333     0.166666666667     0.000000000000     0          
O        O      0.231000000000     0.016433333333     0.222900000000     0          
O        O      0.290433333333     0.040666666667     0.184300000000     0          
O        O      0.209500000000     0.032433333333     0.166000000000     0          
O        O      0.229666666667     0.083333333333     0.204750000000     0          
O        O      0.166666666667     0.019400000000     0.435350000000     0          
O        O      0.166666666667     0.314366666667     0.385100000000     0          
O        O      0.166666666667     0.250000000000     0.362550000000     0          
O        O      0.209433333333     0.198033333333     0.013550000000     0          
O        O      0.166666666667     0.250000000000     0.041050000000     0          
T        Si     0.240133333333     0.043066666667     0.194600000000     0          
T        Si     0.166666666667     0.312800000000     0.422100000000     0          
T        Si     0.166666666667     0.208533333333     0.353750000000     0          
T        Si     0.166666666667     0.208333333333     0.033000000000     0          
O        O      0.102333333333     0.150233333333     0.222900000000     0          
O        O      0.042900000000     0.126000000000     0.184300000000     0          
O        O      0.123833333333     0.134233333333     0.166000000000     0          
O        O      0.103666666667     0.083333333333     0.204750000000     0          
O        O      0.166666666667     0.147266666667     0.435350000000     0          
O        O      0.166666666667     0.185633333333     0.385100000000     0          
O        O      0.123900000000     0.301966666667     0.013550000000     0          
T        Si     0.093200000000     0.123600000000     0.194600000000     0          
T        Si     0.166666666667     0.187200000000     0.422100000000     0          
T        Si     0.166666666667     0.291466666667     0.353750000000     0          
T        Si     0.166666666667     0.291666666667     0.033000000000     0          
O        O      0.102333333333     0.016433333333     0.222900000000     0          
O        O      0.042900000000     0.040666666667     0.184300000000     0          
O        O      0.123833333333     0.032433333333     0.166000000000     0          
O        O      0.123900000000     0.198033333333     0.013550000000     0          
T        Si     0.093200000000     0.043066666667     0.194600000000     0          
T        Si     0.093933333333     0.000000000000     0.000000000000     0          
O        O      0.231000000000     0.150233333333     0.222900000000     0          
O        O      0.290433333333     0.126000000000     0.184300000000     0          
O        O      0.209500000000     0.134233333333     0.166000000000     0          
O        O      0.209433333333     0.301966666667     0.013550000000     0          
T        Si     0.240133333333     0.123600000000     0.194600000000     0          
T        Si     0.239400000000     0.166666666667     0.000000000000     0          
O        O      0.102333333333     0.316900000000     0.277100000000     0          
O        O      0.042900000000     0.292666666667     0.315700000000     0          
O        O      0.123833333333     0.300900000000     0.334000000000     0          
O        O      0.123900000000     0.135300000000     0.486450000000     0          
T        Si     0.093200000000     0.290266666667     0.305400000000     0          
O        O      0.231000000000     0.183100000000     0.277100000000     0          
O        O      0.290433333333     0.207333333333     0.315700000000     0          
O        O      0.209500000000     0.199100000000     0.334000000000     0          
O        O      0.209433333333     0.031366666667     0.486450000000     0          
T        Si     0.240133333333     0.209733333333     0.305400000000     0          
O        O      0.064333333333     0.150233333333     0.527100000000     0          
O        O      0.123766666667     0.126000000000     0.565700000000     0          
O        O      0.042833333333     0.134233333333     0.584000000000     0          
O        O      0.063000000000     0.083333333333     0.545250000000     0          
O        O      0.000000000000     0.147266666667     0.814650000000     0          
O        O      0.000000000000     0.185633333333     0.864900000000     0          
O        O      0.000000000000     0.250000000000     0.887450000000     0          
O        O      0.042766666667     0.301966666667     0.736450000000     0          
O        O      0.000000000000     0.250000000000     0.708950000000     0          
T        Si     0.073466666667     0.123600000000     0.555400000000     0          
T        Si     0.000000000000     0.187200000000     0.827900000000     0          
T        Si     0.000000000000     0.291466666667     0.896250000000     0          
T        Si     0.000000000000     0.291666666667     0.717000000000     0          
T        Si     0.072733333333     0.166666666667     0.750000000000     0          
O        O      0.269000000000     0.016433333333     0.527100000000     0          
O        O      0.209566666667     0.040666666667     0.565700000000     0          
O        O      0.290500000000     0.032433333333     0.584000000000     0          
O        O      0.270333333333     0.083333333333     0.545250000000     0          
O        O      0.000000000000     0.019400000000     0.814650000000     0          
O        O      0.000000000000     0.314366666667     0.864900000000     0          
O        O      0.290566666667     0.198033333333     0.736450000000     0          
T        Si     0.259866666667     0.043066666667     0.555400000000     0          
T        Si     0.000000000000     0.312800000000     0.827900000000     0          
T        Si     0.000000000000     0.208533333333     0.896250000000     0          
T        Si     0.000000000000     0.208333333333     0.717000000000     0          
T        Si     0.260600000000     0.000000000000     0.750000000000     0          
O        O      0.064333333333     0.183100000000     0.972900000000     0          
O        O      0.123766666667     0.207333333333     0.934300000000     0          
O        O      0.042833333333     0.199100000000     0.916000000000     0          
O        O      0.063000000000     0.250000000000     0.954750000000     0          
O        O      0.000000000000     0.186066666667     0.685350000000     0          
O        O      0.000000000000     0.147700000000     0.635100000000     0          
O        O      0.000000000000     0.083333333333     0.612550000000     0          
O        O      0.042766666667     0.031366666667     0.763550000000     0          
O        O      0.000000000000     0.083333333333     0.791050000000     0          
T        Si     0.073466666667     0.209733333333     0.944600000000     0          
T        Si     0.000000000000     0.146133333333     0.672100000000     0          
T        Si     0.000000000000     0.041866666667     0.603750000000     0          
T        Si     0.000000000000     0.041666666667     0.783000000000     0          
O        O      0.269000000000     0.316900000000     0.972900000000     0          
O        O      0.209566666667     0.292666666667     0.934300000000     0          
O        O      0.290500000000     0.300900000000     0.916000000000     0          
O        O      0.270333333333     0.250000000000     0.954750000000     0          
O        O      0.000000000000     0.313933333333     0.685350000000     0          
O        O      0.000000000000     0.018966666667     0.635100000000     0          
O        O      0.290566666667     0.135300000000     0.763550000000     0          
T        Si     0.259866666667     0.290266666667     0.944600000000     0          
T        Si     0.000000000000     0.020533333333     0.672100000000     0          
T        Si     0.000000000000     0.124800000000     0.603750000000     0          
T        Si     0.000000000000     0.125000000000     0.783000000000     0          
O        O      0.269000000000     0.183100000000     0.972900000000     0          
O        O      0.209566666667     0.207333333333     0.934300000000     0          
O        O      0.290500000000     0.199100000000     0.916000000000     0          
O        O      0.290566666667     0.031366666667     0.763550000000     0          
T        Si     0.259866666667     0.209733333333     0.944600000000     0          
T        Si     0.260600000000     0.166666666667     0.750000000000     0          
O        O      0.064333333333     0.316900000000     0.972900000000     0          
O        O      0.123766666667     0.292666666667     0.934300000000     0          
O        O      0.042833333333     0.300900000000     0.916000000000     0          
O        O      0.042766666667     0.135300000000     0.763550000000     0          
T        Si     0.073466666667     0.290266666667     0.944600000000     0          
T        Si     0.072733333333     0.000000000000     0.750000000000     0          
O        O      0.269000000000     0.150233333333     0.527100000000     0          
O        O      0.209566666667     0.126000000000     0.565700000000     0          
O        O      0.290500000000     0.134233333333     0.584000000000     0          
O        O      0.290566666667     0.301966666667     0.736450000000     0          
T        Si     0.259866666667     0.123600000000     0.555400000000     0          
O        O      0.064333333333     0.016433333333     0.527100000000     0          
O        O      0.123766666667     0.040666666667     0.565700000000     0          
O        O      0.042833333333     0.032433333333     0.584000000000     0          
O        O      0.042766666667     0.198033333333     0.736450000000     0          
T        Si     0.073466666667     0.043066666667     0.555400000000     0          
O        O      0.231000000000     0.316900000000     0.777100000000     0          
O        O      0.290433333333     0.292666666667     0.815700000000     0          
O        O      0.209500000000     0.300900000000     0.834000000000     0          
O        O      0.229666666667     0.250000000000     0.795250000000     0          
O        O      0.166666666667     0.313933333333     0.564650000000     0          
O        O      0.166666666667     0.018966666667     0.614900000000     0          
O        O      0.166666666667     0.083333333333     0.637450000000     0          
O        O      0.209433333333     0.135300000000     0.986450000000     0          
O        O      0.166666666667     0.083333333333     0.958950000000     0          
T        Si     0.240133333333     0.290266666667     0.805400000000     0          
T        Si     0.166666666667     0.020533333333     0.577900000000     0          
T        Si     0.166666666667     0.124800000000     0.646250000000     0          
T        Si     0.166666666667     0.125000000000     0.967000000000     0          
T        Si     0.239400000000     0.000000000000     0.500000000000     0          
O        O      0.102333333333     0.183100000000     0.777100000000     0          
O        O      0.042900000000     0.207333333333     0.815700000000     0          
O        O      0.123833333333     0.199100000000     0.834000000000     0          
O        O      0.103666666667     0.250000000000     0.795250000000     0          
O        O      0.166666666667     0.186066666667     0.564650000000     0          
O        O      0.166666666667     0.147700000000     0.614900000000     0          
O        O      0.123900000000     0.031366666667     0.986450000000     0          
T        Si     0.093200000000     0.209733333333     0.805400000000     0          
T        Si     0.166666666667     0.146133333333     0.577900000000     0          
T        Si     0.166666666667     0.041866666667     0.646250000000     0          
T        Si     0.166666666667     0.041666666667     0.967000000000     0          
T        Si     0.093933333333     0.166666666667     0.500000000000     0          
O        O      0.231000000000     0.016433333333     0.722900000000     0          
O        O      0.290433333333     0.040666666667     0.684300000000     0          
O        O      0.209500000000     0.032433333333     0.666000000000     0          
O        O      0.229666666667     0.083333333333     0.704750000000     0          
O        O      0.166666666667     0.019400000000     0.935350000000     0          
O        O      0.166666666667     0.314366666667     0.885100000000     0          
O        O      0.166666666667     0.250000000000     0.862550000000     0          
O        O      0.209433333333     0.198033333333     0.513550000000     0          
O        O      0.166666666667     0.250000000000     0.541050000000     0          
T        Si     0.240133333333     0.043066666667     0.694600000000     0          
T        Si     0.166666666667     0.312800000000     0.922100000000     0          
T        Si     0.166666666667     0.208533333333     0.853750000000     0          
T        Si     0.166666666667     0.208333333333     0.533000000000     0          
O        O      0.102333333333     0.150233333333     0.722900000000     0          
O        O      0.042900000000     0.126000000000     0.684300000000     0          
O        O      0.123833333333     0.134233333333     0.666000000000     0          
O        O      0.103666666667     0.083333333333     0.704750000000     0          
O        O      0.166666666667     0.147266666667     0.935350000000     0          
O        O      0.166666666667     0.185633333333     0.885100000000     0          
O        O      0.123900000000     0.301966666667     0.513550000000     0          
T        Si     0.093200000000     0.123600000000     0.694600000000     0          
T        Si     0.166666666667     0.187200000000     0.922100000000     0          
T        Si     0.166666666667     0.291466666667     0.853750000000     0          
T        Si     0.166666666667     0.291666666667     0.533000000000     0          
O        O      0.102333333333     0.016433333333     0.722900000000     0          
O        O      0.042900000000     0.040666666667     0.684300000000     0          
O        O      0.123833333333     0.032433333333     0.666000000000     0          
O        O      0.123900000000     0.198033333333     0.513550000000     0          
T        Si     0.093200000000     0.043066666667     0.694600000000     0          
T        Si     0.093933333333     0.000000000000     0.500000000000     0          
O        O      0.231000000000     0.150233333333     0.722900000000     0          
O        O      0.290433333333     0.126000000000     0.684300000000     0          
O        O      0.209500000000     0.134233333333     0.666000000000     0          
O        O      0.209433333333     0.301966666667     0.513550000000     0          
T        Si     0.240133333333     0.123600000000     0.694600000000     0          
T        Si     0.239400000000     0.166666666667     0.500000000000     0          
O        O      0.102333333333     0.316900000000     0.777100000000     0          
O        O      0.042900000000     0.292666666667     0.815700000000     0          
O        O      0.123833333333     0.300900000000     0.834000000000     0          
O        O      0.123900000000     0.135300000000     0.986450000000     0          
T        Si     0.093200000000     0.290266666667     0.805400000000     0          
O        O      0.231000000000     0.183100000000     0.777100000000     0          
O        O      0.290433333333     0.207333333333     0.815700000000     0          
O        O      0.209500000000     0.199100000000     0.834000000000     0          
O        O      0.209433333333     0.031366666667     0.986450000000     0          
T        Si     0.240133333333     0.209733333333     0.805400000000     0          
O        O      0.064333333333     0.483566666667     0.027100000000     0          
O        O      0.123766666667     0.459333333333     0.065700000000     0          
O        O      0.042833333333     0.467566666667     0.084000000000     0          
O        O      0.063000000000     0.416666666667     0.045250000000     0          
O        O      0.000000000000     0.480600000000     0.314650000000     0          
O        O      0.000000000000     0.518966666667     0.364900000000     0          
O        O      0.000000000000     0.583333333333     0.387450000000     0          
O        O      0.042766666667     0.635300000000     0.236450000000     0          
O        O      0.000000000000     0.583333333333     0.208950000000     0          
T        Si     0.073466666667     0.456933333333     0.055400000000     0          
T        Si     0.000000000000     0.520533333333     0.327900000000     0          
T        Si     0.000000000000     0.624800000000     0.396250000000     0          
T        Si     0.000000000000     0.625000000000     0.217000000000     0          
T        Si     0.072733333333     0.500000000000     0.250000000000     0          
O        O      0.269000000000     0.349766666667     0.027100000000     0          
O        O      0.209566666667     0.374000000000     0.065700000000     0          
O        O      0.290500000000     0.365766666667     0.084000000000     0          
O        O      0.270333333333     0.416666666667     0.045250000000     0          
O        O      0.000000000000     0.352733333333     0.314650000000     0          
O        O      0.000000000000     0.647700000000     0.364900000000     0          
O        O      0.290566666667     0.531366666667     0.236450000000     0          
T        Si     0.259866666667     0.376400000000     0.055400000000     0          
T        Si     0.000000000000     0.646133333333     0.327900000000     0          
T        Si     0.000000000000     0.541866666667     0.396250000000     0          
T        Si     0.000000000000     0.541666666667     0.217000000000     0          
T        Si     0.260600000000     0.333333333333     0.250000000000     0          
O        O      0.064333333333     0.516433333333     0.472900000000     0          
O        O      0.123766666667     0.540666666667     0.434300000000     0          
O        O      0.042833333333     0.532433333333     0.416000000000     0          
O        O      0.063000000000     0.583333333333     0.454750000000     0          
O        O      0.000000000000     0.519400000000     0.185350000000     0          
O        O      0.000000000000     0.481033333333     0.135100000000     0          
O        O      0.000000000000     0.416666666667     0.112550000000     0          
O        O      0.042766666667     0.364700000000     0.263550000000     0          
O        O      0.000000000000     0.416666666667     0.291050000000     0          
T        Si     0.073466666667     0.543066666667     0.444600000000     0          
T        Si     0.000000000000     0.479466666667     0.172100000000     0          
T        Si     0.000000000000     0.375200000000     0.103750000000     0          
T        Si     0.000000000000     0.375000000000     0.283000000000     0          
O        O      0.269000000000     0.650233333333     0.472900000000     0          
O        O      0.209566666667     0.626000000000     0.434300000000     0          
O        O      0.290500000000     0.634233333333     0.416000000000     0          
O        O      0.270333333333     0.583333333333     0.454750000000     0          
O        O      0.000000000000     0.647266666667     0.185350000000     0          
O        O      0.000000000000     0.352300000000     0.135100000000     0          
O        O      0.290566666667     0.468633333333     0.263550000000     0          
T        Si     0.259866666667     0.623600000000     0.444600000000     0          
T        Si     0.000000000000     0.353866666667     0.172100000000     0          
T        Si     0.000000000000     0.458133333333     0.103750000000     0          
T        Si     0.000000000000     0.458333333333     0.283000000000     0          
O        O      0.269000000000     0.516433333333     0.472900000000     0          
O        O      0.209566666667     0.540666666667     0.434300000000     0          
O        O      0.290500000000     0.532433333333     0.416000000000     0          
O        O      0.290566666667     0.364700000000     0.263550000000     0          
T        Si     0.259866666667     0.543066666667     0.444600000000     0          
T        Si     0.260600000000     0.500000000000     0.250000000000     0          
O        O      0.064333333333     0.650233333333     0.472900000000     0          
O        O      0.123766666667     0.626000000000     0.434300000000     0          
O        O      0.042833333333     0.634233333333     0.416000000000     0          
O        O      0.042766666667     0.468633333333     0.263550000000     0          
T        Si     0.073466666667     0.623600000000     0.444600000000     0          
T        Si     0.072733333333     0.333333333333     0.250000000000     0          
O        O      0.269000000000     0.483566666667     0.027100000000     0          
O        O      0.209566666667     0.459333333333     0.065700000000     0          
O        O      0.290500000000     0.467566666667     0.084000000000     0          
O        O      0.290566666667     0.635300000000     0.236450000000     0          
T        Si     0.259866666667     0.456933333333     0.055400000000     0          
O        O      0.064333333333     0.349766666667     0.027100000000     0          
O        O      0.123766666667     0.374000000000     0.065700000000     0          
O        O      0.042833333333     0.365766666667     0.084000000000     0          
O        O      0.042766666667     0.531366666667     0.236450000000     0          
T        Si     0.073466666667     0.376400000000     0.055400000000     0          
O        O      0.231000000000     0.650233333333     0.277100000000     0          
O        O      0.290433333333     0.626000000000     0.315700000000     0          
O        O      0.209500000000     0.634233333333     0.334000000000     0          
O        O      0.229666666667     0.583333333333     0.295250000000     0          
O        O      0.166666666667     0.647266666667     0.064650000000     0          
O        O      0.166666666667     0.352300000000     0.114900000000     0          
O        O      0.166666666667     0.416666666667     0.137450000000     0          
O        O      0.209433333333     0.468633333333     0.486450000000     0          
O        O      0.166666666667     0.416666666667     0.458950000000     0          
T        Si     0.240133333333     0.623600000000     0.305400000000     0          
T        Si     0.166666666667     0.353866666667     0.077900000000     0          
T        Si     0.166666666667     0.458133333333     0.146250000000     0          
T        Si     0.166666666667     0.458333333333     0.467000000000     0          
T        Si     0.239400000000     0.333333333333     0.000000000000     0          
O        O      0.102333333333     0.516433333333     0.277100000000     0          
O        O      0.042900000000     0.540666666667     0.315700000000     0          
O        O      0.123833333333     0.532433333333     0.334000000000     0          
O        O      0.103666666667     0.583333333333     0.295250000000     0          
O        O      0.166666666667     0.519400000000     0.064650000000     0          
O        O      0.166666666667     0.481033333333     0.114900000000     0          
O        O      0.123900000000     0.364700000000     0.486450000000     0          
T        Si     0.093200000000     0.543066666667     0.305400000000     0          
T        Si     0.166666666667     0.479466666667     0.077900000000     0          
T        Si     0.166666666667     0.375200000000     0.146250000000     0          
T        Si     0.166666666667     0.375000000000     0.467000000000     0          
T        Si     0.093933333333     0.500000000000     0.000000000000     0          
O        O      0.231000000000     0.349766666667     0.222900000000     0          
O        O      0.290433333333     0.374000000000     0.184300000000     0          
O        O      0.209500000000     0.365766666667     0.166000000000     0          
O        O      0.229666666667     0.416666666667     0.204750000000     0          
O        O      0.166666666667     0.352733333333     0.435350000000     0          
O        O      0.166666666667     0.647700000000     0.385100000000     0          
O        O      0.166666666667     0.583333333333     0.362550000000     0          
O        O      0.209433333333     0.531366666667     0.013550000000     0          
O        O      0.166666666667     0.583333333333     0.041050000000     0          
T        Si     0.240133333333     0.376400000000     0.194600000000     0          
T        Si     0.166666666667     0.646133333333     0.422100000000     0          
T        Si     0.166666666667     0.541866666667     0.353750000000     0          
T        Si     0.166666666667     0.541666666667     0.033000000000     0          
O        O      0.102333333333     0.483566666667     0.222900000000     0          
O        O      0.042900000000     0.459333333333     0.184300000000     0          
O        O      0.123833333333     0.467566666667     0.166000000000     0          
O        O      0.103666666667     0.416666666667     0.204750000000     0          
O        O      0.166666666667     0.480600000000     0.435350000000     0          
O        O      0.166666666667     0.518966666667     0.385100000000     0          
O        O      0.123900000000     0.635300000000     0.013550000000     0          
T        Si     0.093200000000     0.456933333333     0.194600000000     0          
T        Si     0.166666666667     0.520533333333     0.422100000000     0          
T        Si     0.166666666667     0.624800000000     0.353750000000     0          
T        Si     0.166666666667     0.625000000000     0.033000000000     0          
O        O      0.102333333333     0.349766666667     0.222900000000     0          
O        O      0.042900000000     0.374000000000     0.184300000000     0          
O        O      0.123833333333     0.365766666667     0.166000000000     0          
O        O      0.123900000000     0.531366666667     0.013550000000     0          
T        Si     0.093200000000     0.376400000000     0.194600000000     0          
T        Si     0.093933333333     0.333333333333     0.000000000000     0          
O        O      0.231000000000     0.483566666667     0.222900000000     0          
O        O      0.290433333333     0.459333333333     0.184300000000     0          
O        O      0.209500000000     0.467566666667     0.166000000000     0          
O        O      0.209433333333     0.635300000000     0.013550000000     0          
T        Si     0.240133333333     0.456933333333     0.194600000000     0          
T        Si     0.239400000000     0.500000000000     0.000000000000     0          
O        O      0.102333333333     0.650233333333     0.277100000000     0          
O        O      0.042900000000     0.626000000000     0.315700000000     0          
O        O      0.123833333333     0.634233333333     0.334000000000     0          
O        O      0.123900000000     0.468633333333     0.486450000000     0          
T        Si     0.093200000000     0.623600000000     0.305400000000     0          
O        O      0.231000000000     0.516433333333     0.277100000000     0          
O        O      0.290433333333     0.540666666667     0.315700000000     0          
O        O      0.209500000000     0.532433333333     0.334000000000     0          
O        O      0.209433333333     0.364700000000     0.486450000000     0          
T        Si     0.240133333333     0.543066666667     0.305400000000     0          
O        O      0.064333333333     0.483566666667     0.527100000000     0          
O        O      0.123766666667     0.459333333333     0.565700000000     0          
O        O      0.042833333333     0.467566666667     0.584000000000     0          
O        O      0.063000000000     0.416666666667     0.545250000000     0          
O        O      0.000000000000     0.480600000000     0.814650000000     0          
O        O      0.000000000000     0.518966666667     0.864900000000     0          
O        O      0.000000000000     0.583333333333     0.887450000000     0          
O        O      0.042766666667     0.635300000000     0.736450000000     0          
O        O      0.000000000000     0.583333333333     0.708950000000     0          
T        Si     0.073466666667     0.456933333333     0.555400000000     0          
T        Si     0.000000000000     0.520533333333     0.827900000000     0          
T        Si     0.000000000000     0.624800000000     0.896250000000     0          
T        Si     0.000000000000     0.625000000000     0.717000000000     0          
T        Si     0.072733333333     0.500000000000     0.750000000000     0          
O        O      0.269000000000     0.349766666667     0.527100000000     0          
O        O      0.209566666667     0.374000000000     0.565700000000     0          
O        O      0.290500000000     0.365766666667     0.584000000000     0          
O        O      0.270333333333     0.416666666667     0.545250000000     0          
O        O      0.000000000000     0.352733333333     0.814650000000     0          
O        O      0.000000000000     0.647700000000     0.864900000000     0          
O        O      0.290566666667     0.531366666667     0.736450000000     0          
T        Si     0.259866666667     0.376400000000     0.555400000000     0          
T        Si     0.000000000000     0.646133333333     0.827900000000     0          
T        Si     0.000000000000     0.541866666667     0.896250000000     0          
T        Si     0.000000000000     0.541666666667     0.717000000000     0          
T        Si     0.260600000000     0.333333333333     0.750000000000     0          
O        O      0.064333333333     0.516433333333     0.972900000000     0          
O        O      0.123766666667     0.540666666667     0.934300000000     0          
O        O      0.042833333333     0.532433333333     0.916000000000     0          
O        O      0.063000000000     0.583333333333     0.954750000000     0          
O        O      0.000000000000     0.519400000000     0.685350000000     0          
O        O      0.000000000000     0.481033333333     0.635100000000     0          
O        O      0.000000000000     0.416666666667     0.612550000000     0          
O        O      0.042766666667     0.364700000000     0.763550000000     0          
O        O      0.000000000000     0.416666666667     0.791050000000     0          
T        Si     0.073466666667     0.543066666667     0.944600000000     0          
T        Si     0.000000000000     0.479466666667     0.672100000000     0          
T        Si     0.000000000000     0.375200000000     0.603750000000     0          
T        Si     0.000000000000     0.375000000000     0.783000000000     0          
O        O      0.269000000000     0.650233333333     0.972900000000     0          
O        O      0.209566666667     0.626000000000     0.934300000000     0          
O        O      0.290500000000     0.634233333333     0.916000000000     0          
O        O      0.270333333333     0.583333333333     0.954750000000     0          
O        O      0.000000000000     0.647266666667     0.685350000000     0          
O        O      0.000000000000     0.352300000000     0.635100000000     0          
O        O      0.290566666667     0.468633333333     0.763550000000     0          
T        Si     0.259866666667     0.623600000000     0.944600000000     0          
T        Si     0.000000000000     0.353866666667     0.672100000000     0          
T        Si     0.000000000000     0.458133333333     0.603750000000     0          
T        Si     0.000000000000     0.458333333333     0.783000000000     0          
O        O      0.269000000000     0.516433333333     0.972900000000     0          
O        O      0.209566666667     0.540666666667     0.934300000000     0          
O        O      0.290500000000     0.532433333333     0.916000000000     0          
O        O      0.290566666667     0.364700000000     0.763550000000     0          
T        Si     0.259866666667     0.543066666667     0.944600000000     0          
T        Si     0.260600000000     0.500000000000     0.750000000000     0          
O        O      0.064333333333     0.650233333333     0.972900000000     0          
O        O      0.123766666667     0.626000000000     0.934300000000     0          
O        O      0.042833333333     0.634233333333     0.916000000000     0          
O        O      0.042766666667     0.468633333333     0.763550000000     0          
T        Si     0.073466666667     0.623600000000     0.944600000000     0          
T        Si     0.072733333333     0.333333333333     0.750000000000     0          
O        O      0.269000000000     0.483566666667     0.527100000000     0          
O        O      0.209566666667     0.459333333333     0.565700000000     0          
O        O      0.290500000000     0.467566666667     0.584000000000     0          
O        O      0.290566666667     0.635300000000     0.736450000000     0          
T        Si     0.259866666667     0.456933333333     0.555400000000     0          
O        O      0.064333333333     0.349766666667     0.527100000000     0          
O        O      0.123766666667     0.374000000000     0.565700000000     0          
O        O      0.042833333333     0.365766666667     0.584000000000     0          
O        O      0.042766666667     0.531366666667     0.736450000000     0          
T        Si     0.073466666667     0.376400000000     0.555400000000     0          
O        O      0.231000000000     0.650233333333     0.777100000000     0          
O        O      0.290433333333     0.626000000000     0.815700000000     0          
O        O      0.209500000000     0.634233333333     0.834000000000     0          
O        O      0.229666666667     0.583333333333     0.795250000000     0          
O        O      0.166666666667     0.647266666667     0.564650000000     0          
O        O      0.166666666667     0.352300000000     0.614900000000     0          
O        O      0.166666666667     0.416666666667     0.637450000000     0          
O        O      0.209433333333     0.468633333333     0.986450000000     0          
O        O      0.166666666667     0.416666666667     0.958950000000     0          
T        Si     0.240133333333     0.623600000000     0.805400000000     0          
T        Si     0.166666666667     0.353866666667     0.577900000000     0          
T        Si     0.166666666667     0.458133333333     0.646250000000     0          
T        Si     0.166666666667     0.458333333333     0.967000000000     0          
T        Si     0.239400000000     0.333333333333     0.500000000000     0          
O        O      0.102333333333     0.516433333333     0.777100000000     0          
O        O      0.042900000000     0.540666666667     0.815700000000     0          
O        O      0.123833333333     0.532433333333     0.834000000000     0          
O        O      0.103666666667     0.583333333333     0.795250000000     0          
O        O      0.166666666667     0.519400000000     0.564650000000     0          
O        O      0.166666666667     0.481033333333     0.614900000000     0          
O        O      0.123900000000     0.364700000000     0.986450000000     0          
T        Si     0.093200000000     0.543066666667     0.805400000000     0          
T        Si     0.166666666667     0.479466666667     0.577900000000     0          
T        Si     0.166666666667     0.375200000000     0.646250000000     0          
T        Si     0.166666666667     0.375000000000     0.967000000000     0          
T        Si     0.093933333333     0.500000000000     0.500000000000     0          
O        O      0.231000000000     0.349766666667     0.722900000000     0          
O        O      0.290433333333     0.374000000000     0.684300000000     0          
O        O      0.209500000000     0.365766666667     0.666000000000     0          
O        O      0.229666666667     0.416666666667     0.704750000000     0          
O        O      0.166666666667     0.352733333333     0.935350000000     0          
O        O      0.166666666667     0.647700000000     0.885100000000     0          
O        O      0.166666666667     0.583333333333     0.862550000000     0          
O        O      0.209433333333     0.531366666667     0.513550000000     0          
O        O      0.166666666667     0.583333333333     0.541050000000     0          
T        Si     0.240133333333     0.376400000000     0.694600000000     0          
T        Si     0.166666666667     0.646133333333     0.922100000000     0          
T        Si     0.166666666667     0.541866666667     0.853750000000     0          
T        Si     0.166666666667     0.541666666667     0.533000000000     0          
O        O      0.102333333333     0.483566666667     0.722900000000     0          
O        O      0.042900000000     0.459333333333     0.684300000000     0          
O        O      0.123833333333     0.467566666667     0.666000000000     0          
O        O      0.103666666667     0.416666666667     0.704750000000     0          
O        O      0.166666666667     0.480600000000     0.935350000000     0          
O        O      0.166666666667     0.518966666667     0.885100000000     0          
O        O      0.123900000000     0.635300000000     0.513550000000     0          
T        Si     0.093200000000     0.456933333333     0.694600000000     0          
T        Si     0.166666666667     0.520533333333     0.922100000000     0          
T        Si     0.166666666667     0.624800000000     0.853750000000     0          
T        Si     0.166666666667     0.625000000000     0.533000000000     0          
O        O      0.102333333333     0.349766666667     0.722900000000     0          
O        O      0.042900000000     0.374000000000     0.684300000000     0          
O        O      0.123833333333     0.365766666667     0.666000000000     0          
O        O      0.123900000000     0.531366666667     0.513550000000     0          
T        Si     0.093200000000     0.376400000000     0.694600000000     0          
T        Si     0.093933333333     0.333333333333     0.500000000000     0          
O        O      0.231000000000     0.483566666667     0.722900000000     0          
O        O      0.290433333333     0.459333333333     0.684300000000     0          
O        O      0.209500000000     0.467566666667     0.666000000000     0          
O        O      0.209433333333     0.635300000000     0.513550000000     0          
T        Si     0.240133333333     0.456933333333     0.694600000000     0          
T        Si     0.239400000000     0.500000000000     0.500000000000     0          
O        O      0.102333333333     0.650233333333     0.777100000000     0          
O        O      0.042900000000     0.626000000000     0.815700000000     0          
O        O      0.123833333333     0.634233333333     0.834000000000     0          
O        O      0.123900000000     0.468633333333     0.986450000000     0          
T        Si     0.093200000000     0.623600000000     0.805400000000     0          
O        O      0.231000000000     0.516433333333     0.777100000000     0          
O        O      0.290433333333     0.540666666667     0.815700000000     0          
O        O      0.209500000000     0.532433333333     0.834000000000     0          
O        O      0.209433333333     0.364700000000     0.986450000000     0          
T        Si     0.240133333333     0.543066666667     0.805400000000     0          
O        O      0.064333333333     0.816900000000     0.027100000000     0          
O        O      0.123766666667     0.792666666667     0.065700000000     0          
O        O      0.042833333333     0.800900000000     0.084000000000     0          
O        O      0.063000000000     0.750000000000     0.045250000000     0          
O        O      0.000000000000     0.813933333333     0.314650000000     0          
O        O      0.000000000000     0.852300000000     0.364900000000     0          
O        O      0.000000000000     0.916666666667     0.387450000000     0          
O        O      0.042766666667     0.968633333333     0.236450000000     0          
O        O      0.000000000000     0.916666666667     0.208950000000     0          
T        Si     0.073466666667     0.790266666667     0.055400000000     0          
T        Si     0.000000000000     0.853866666667     0.327900000000     0          
T        Si     0.000000000000     0.958133333333     0.396250000000     0          
T        Si     0.000000000000     0.958333333333     0.217000000000     0          
T        Si     0.072733333333     0.833333333333     0.250000000000     0          
O        O      0.269000000000     0.683100000000     0.027100000000     0          
O        O      0.209566666667     0.707333333333     0.065700000000     0          
O        O      0.290500000000     0.699100000000     0.084000000000     0          
O        O      0.270333333333     0.750000000000     0.045250000000     0          
O        O      0.000000000000     0.686066666667     0.314650000000     0          
O        O      0.000000000000     0.981033333333     0.364900000000     0          
O        O      0.290566666667     0.864700000000     0.236450000000     0          
T        Si     0.259866666667     0.709733333333     0.055400000000     0          
T        Si     0.000000000000     0.979466666667     0.327900000000     0          
T        Si     0.000000000000     0.875200000000     0.396250000000     0          
T        Si     0.000000000000     0.875000000000     0.217000000000     0          
T        Si     0.260600000000     0.666666666667     0.250000000000     0          
O        O      0.064333333333     0.849766666667     0.472900000000     0          
O        O      0.123766666667     0.874000000000     0.434300000000     0          
O        O      0.042833333333     0.865766666667     0.416000000000     0          
O        O      0.063000000000     0.916666666667     0.454750000000     0          
O        O      0.000000000000     0.852733333333     0.185350000000     0          
O        O      0.000000000000     0.814366666667     0.135100000000     0          
O        O      0.000000000000     0.750000000000     0.112550000000     0          
O        O      0.042766666667     0.698033333333     0.263550000000     0          
O        O      0.000000000000     0.750000000000     0.291050000000     0          
T        Si     0.073466666667     0.876400000000     0.444600000000     0          
T        Si     0.000000000000     0.812800000000     0.172100000000     0          
T        Si     0.000000000000     0.708533333333     0.103750000000     0          
T        Si     0.000000000000     0.708333333333     0.283000000000     0          
O        O      0.269000000000     0.983566666667     0.472900000000     0          
O        O      0.209566666667     0.959333333333     0.434300000000     0          
O        O      0.290500000000     0.967566666667     0.416000000000     0          
O        O      0.270333333333     0.916666666667     0.454750000000     0          
O        O      0.000000000000     0.980600000000     0.185350000000     0          
O        O      0.000000000000     0.685633333333     0.135100000000     0          
O        O      0.290566666667     0.801966666667     0.263550000000     0          
T        Si     0.259866666667     0.956933333333     0.444600000000     0          
T        Si     0.000000000000     0.687200000000     0.172100000000     0          
T        Si     0.000000000000     0.791466666667     0.103750000000     0          
T        Si     0.000000000000     0.791666666667     0.283000000000     0          
O        O      0.269000000000     0.849766666667     0.472900000000     0          
O        O      0.209566666667     0.874000000000     0.434300000000     0          
O        O      0.290500000000     0.865766666667     0.416000000000     0          
O        O      0.290566666667     0.698033333333     0.263550000000     0          
T        Si     0.259866666667     0.876400000000     0.444600000000     0          
T        Si     0.260600000000     0.833333333333     0.250000000000     0          
O        O      0.064333333333     0.983566666667     0.472900000000     0          
O        O      0.123766666667     0.959333333333     0.434300000000     0          
O        O      0.042833333333     0.967566666667     0.416000000000     0          
O        O      0.042766666667     0.801966666667     0.263550000000     0          
T        Si     0.073466666667     0.956933333333     0.444600000000     0          
T        Si     0.072733333333     0.666666666667     0.250000000000     0          
O        O      0.269000000000     0.816900000000     0.027100000000     0          
O        O      0.209566666667     0.792666666667     0.065700000000     0          
O        O      0.290500000000     0.800900000000     0.084000000000     0          
O        O      0.290566666667     0.968633333333     0.236450000000     0          
T        Si     0.259866666667     0.790266666667     0.055400000000     0          
O        O      0.064333333333     0.683100000000     0.027100000000     0          
O        O      0.123766666667     0.707333333333     0.065700000000     0          
O        O      0.042833333333     0.699100000000     0.084000000000     0          
O        O      0.042766666667     0.864700000000     0.236450000000     0          
T        Si     0.073466666667     0.709733333333     0.055400000000     0          
O        O      0.231000000000     0.983566666667     0.277100000000     0          
O        O      0.290433333333     0.959333333333     0.315700000000     0          
O        O      0.209500000000     0.967566666667     0.334000000000     0          
O        O      0.229666666667     0.916666666667     0.295250000000     0          
O        O      0.166666666667     0.980600000000     0.064650000000     0          
O        O      0.166666666667     0.685633333333     0.114900000000     0          
O        O      0.166666666667     0.750000000000     0.137450000000     0          
O        O      0.209433333333     0.801966666667     0.486450000000     0          
O        O      0.166666666667     0.750000000000     0.458950000000     0          
T        Si     0.240133333333     0.956933333333     0.305400000000     0          
T        Si     0.166666666667     0.687200000000     0.077900000000     0          
T        Si     0.166666666667     0.791466666667     0.146250000000     0          
T        Si     0.166666666667     0.791666666667     0.467000000000     0          
T        Si     0.239400000000     0.666666666667     0.000000000000     0          
O        O      0.102333333333     0.849766666667     0.277100000000     0          
O        O      0.042900000000     0.874000000000     0.315700000000     0          
O        O      0.123833333333     0.865766666667     0.334000000000     0          
O        O      0.103666666667     0.916666666667     0.295250000000     0          
O        O      0.166666666667     0.852733333333     0.064650000000     0          
O        O      0.166666666667     0.814366666667     0.114900000000     0          
O        O      0.123900000000     0.698033333333     0.486450000000     0          
T        Si     0.093200000000     0.876400000000     0.305400000000     0          
T        Si     0.166666666667     0.812800000000     0.077900000000     0          
T        Si     0.166666666667     0.708533333333     0.146250000000     0          
T        Si     0.166666666667     0.708333333333     0.467000000000     0          
T        Si     0.093933333333     0.833333333333     0.000000000000     0          
O        O      0.231000000000     0.683100000000     0.222900000000     0          
O        O      0.290433333333     0.707333333333     0.184300000000     0          
O        O      0.209500000000     0.699100000000     0.166000000000     0          
O        O      0.229666666667     0.750000000000     0.204750000000     0          
O        O      0.166666666667     0.686066666667     0.435350000000     0          
O        O      0.166666666667     0.981033333333     0.385100000000     0          
O        O      0.166666666667     0.916666666667     0.362550000000     0          
O        O      0.209433333333     0.864700000000     0.013550000000     0          
O        O      0.166666666667     0.916666666667     0.041050000000     0          
T        Si     0.240133333333     0.709733333333     0.194600000000     0          
T        Si     0.166666666667     0.979466666667     0.422100000000     0          
T        Si     0.166666666667     0.875200000000     0.353750000000     0          
T        Si     0.166666666667     0.875000000000     0.033000000000     0          
O        O      0.102333333333     0.816900000000     0.222900000000     0          
O        O      0.042900000000     0.792666666667     0.184300000000     0          
O        O      0.123833333333     0.800900000000     0.166000000000     0          
O        O      0.103666666667     0.750000000000     0.204750000000     0          
O        O      0.166666666667     0.813933333333     0.435350000000     0          
O        O      0.166666666667     0.852300000000     0.385100000000     0          
O        O      0.123900000000     0.968633333333     0.013550000000     0          
T        Si     0.093200000000     0.790266666667     0.194600000000     0          
T        Si     0.166666666667     0.853866666667     0.422100000000     0          
T        Si     0.166666666667     0.958133333333     0.353750000000     0          
T        Si     0.166666666667     0.958333333333     0.033000000000     0          
O        O      0.102333333333     0.683100000000     0.222900000000     0          
O        O      0.042900000000     0.707333333333     0.184300000000     0          
O        O      0.123833333333     0.699100000000     0.166000000000     0          
O        O      0.123900000000     0.864700000000     0.013550000000     0          
T        Si     0.093200000000     0.709733333333     0.194600000000     0          
T        Si     0.093933333333     0.666666666667     0.000000000000     0          
O        O      0.231000000000     0.816900000000     0.222900000000     0          
O        O      0.290433333333     0.792666666667     0.184300000000     0          
O        O      0.209500000000     0.800900000000     0.166000000000     0          
O        O      0.209433333333     0.968633333333     0.013550000000     0          
T        Si     0.240133333333     0.790266666667     0.194600000000     0          
T        Si     0.239400000000     0.833333333333     0.000000000000     0          
O        O      0.102333333333     0.983566666667     0.277100000000     0          
O        O      0.042900000000     0.959333333333     0.315700000000     0          
O        O      0.123833333333     0.967566666667     0.334000000000     0          
O        O      0.123900000000     0.801966666667     0.486450000000     0          
T        Si     0.093200000000     0.956933333333     0.305400000000     0          
O        O      0.231000000000     0.849766666667     0.277100000000     0          
O        O      0.290433333333     0.874000000000     0.315700000000     0          
O        O      0.209500000000     0.865766666667     0.334000000000     0          
O        O      0.209433333333     0.698033333333     0.486450000000     0          
T        Si     0.240133333333     0.876400000000     0.305400000000     0          
O        O      0.064333333333     0.816900000000     0.527100000000     0          
O        O      0.123766666667     0.792666666667     0.565700000000     0          
O        O      0.042833333333     0.800900000000     0.584000000000     0          
O        O      0.063000000000     0.750000000000     0.545250000000     0          
O        O      0.000000000000     0.813933333333     0.814650000000     0          
O        O      0.000000000000     0.852300000000     0.864900000000     0          
O        O      0.000000000000     0.916666666667     0.887450000000     0          
O        O      0.042766666667     0.968633333333     0.736450000000     0          
O        O      0.000000000000     0.916666666667     0.708950000000     0          
T        Si     0.073466666667     0.790266666667     0.555400000000     0          
T        Si     0.000000000000     0.853866666667     0.827900000000     0          
T        Si     0.000000000000     0.958133333333     0.896250000000     0          
T        Si     0.000000000000     0.958333333333     0.717000000000     0          
T        Si     0.072733333333     0.833333333333     0.750000000000     0          
O        O      0.269000000000     0.683100000000     0.527100000000     0          
O        O      0.209566666667     0.707333333333     0.565700000000     0          
O        O      0.290500000000     0.699100000000     0.584000000000     0          
O        O      0.270333333333     0.750000000000     0.545250000000     0          
O        O      0.000000000000     0.686066666667     0.814650000000     0          
O        O      0.000000000000     0.981033333333     0.864900000000     0          
O        O      0.290566666667     0.864700000000     0.736450000000     0          
T        Si     0.259866666667     0.709733333333     0.555400000000     0          
T        Si     0.000000000000     0.979466666667     0.827900000000     0          
T        Si     0.000000000000     0.875200000000     0.896250000000     0          
T        Si     0.000000000000     0.875000000000     0.717000000000     0          
T        Si     0.260600000000     0.666666666667     0.750000000000     0          
O        O      0.064333333333     0.849766666667     0.972900000000     0          
O        O      0.123766666667     0.874000000000     0.934300000000     0          
O        O      0.042833333333     0.865766666667     0.916000000000     0          
O        O      0.063000000000     0.916666666667     0.954750000000     0          
O        O      0.000000000000     0.852733333333     0.685350000000     0          
O        O      0.000000000000     0.814366666667     0.635100000000     0          
O        O      0.000000000000     0.750000000000     0.612550000000     0          
O        O      0.042766666667     0.698033333333     0.763550000000     0          
O        O      0.000000000000     0.750000000000     0.791050000000     0          
T        Si     0.073466666667     0.876400000000     0.944600000000     0          
T        Si     0.000000000000     0.812800000000     0.672100000000     0          
T        Si     0.000000000000     0.708533333333     0.603750000000     0          
T        Si     0.000000000000     0.708333333333     0.783000000000     0          
O        O      0.269000000000     0.983566666667     0.972900000000     0          
O        O      0.209566666667     0.959333333333     0.934300000000     0          
O        O      0.290500000000     0.967566666667     0.916000000000     0          
O        O      0.270333333333     0.916666666667     0.954750000000     0          
O        O      0.000000000000     0.980600000000     0.685350000000     0          
O        O      0.000000000000     0.685633333333     0.635100000000     0          
O        O      0.290566666667     0.801966666667     0.763550000000     0          
T        Si     0.259866666667     0.956933333333     0.944600000000     0          
T        Si     0.000000000000     0.687200000000     0.672100000000     0          
T        Si     0.000000000000     0.791466666667     0.603750000000     0          
T        Si     0.000000000000     0.791666666667     0.783000000000     0          
O        O      0.269000000000     0.849766666667     0.972900000000     0          
O        O      0.209566666667     0.874000000000     0.934300000000     0          
O        O      0.290500000000     0.865766666667     0.916000000000     0          
O        O      0.290566666667     0.698033333333     0.763550000000     0          
T        Si     0.259866666667     0.876400000000     0.944600000000     0          
T        Si     0.260600000000     0.833333333333     0.750000000000     0          
O        O      0.064333333333     0.983566666667     0.972900000000     0          
O        O      0.123766666667     0.959333333333     0.934300000000     0          
O        O      0.042833333333     0.967566666667     0.916000000000     0          
O        O      0.042766666667     0.801966666667     0.763550000000     0          
T        Si     0.073466666667     0.956933333333     0.944600000000     0          
T        Si     0.072733333333     0.666666666667     0.750000000000     0          
O        O      0.269000000000     0.816900000000     0.527100000000     0          
O        O      0.209566666667     0.792666666667     0.565700000000     0          
O        O      0.290500000000     0.800900000000     0.584000000000     0          
O        O      0.290566666667     0.968633333333     0.736450000000     0          
T        Si     0.259866666667     0.790266666667     0.555400000000     0          
O        O      0.064333333333     0.683100000000     0.527100000000     0          
O        O      0.123766666667     0.707333333333     0.565700000000     0          
O        O      0.042833333333     0.699100000000     0.584000000000     0          
O        O      0.042766666667     0.864700000000     0.736450000000     0          
T        Si     0.073466666667     0.709733333333     0.555400000000     0          
O        O      0.231000000000     0.983566666667     0.777100000000     0          
O        O      0.290433333333     0.959333333333     0.815700000000     0          
O        O      0.209500000000     0.967566666667     0.834000000000     0          
O        O      0.229666666667     0.916666666667     0.795250000000     0          
O        O      0.166666666667     0.980600000000     0.564650000000     0          
O        O      0.166666666667     0.685633333333     0.614900000000     0          
O        O      0.166666666667     0.750000000000     0.637450000000     0          
O        O      0.209433333333     0.801966666667     0.986450000000     0          
O        O      0.166666666667     0.750000000000     0.958950000000     0          
T        Si     0.240133333333     0.956933333333     0.805400000000     0          
T        Si     0.166666666667     0.687200000000     0.577900000000     0          
T        Si     0.166666666667     0.791466666667     0.646250000000     0          
T        Si     0.166666666667     0.791666666667     0.967000000000     0          
T        Si     0.239400000000     0.666666666667     0.500000000000     0          
O        O      0.102333333333     0.849766666667     0.777100000000     0          
O        O      0.042900000000     0.874000000000     0.815700000000     0          
O        O      0.123833333333     0.865766666667     0.834000000000     0          
O        O      0.103666666667     0.916666666667     0.795250000000     0          
O        O      0.166666666667     0.852733333333     0.564650000000     0          
O        O      0.166666666667     0.814366666667     0.614900000000     0          
O        O      0.123900000000     0.698033333333     0.986450000000     0          
T        Si     0.093200000000     0.876400000000     0.805400000000     0          
T        Si     0.166666666667     0.812800000000     0.577900000000     0          
T        Si     0.166666666667     0.708533333333     0.646250000000     0          
T        Si     0.166666666667     0.708333333333     0.967000000000     0          
T        Si     0.093933333333     0.833333333333     0.500000000000     0          
O        O      0.231000000000     0.683100000000     0.722900000000     0          
O        O      0.290433333333     0.707333333333     0.684300000000     0          
O        O      0.209500000000     0.699100000000     0.666000000000     0          
O        O      0.229666666667     0.750000000000     0.704750000000     0          
O        O      0.166666666667     0.686066666667     0.935350000000     0          
O        O      0.166666666667     0.981033333333     0.885100000000     0          
O        O      0.166666666667     0.916666666667     0.862550000000     0          
O        O      0.209433333333     0.864700000000     0.513550000000     0          
O        O      0.166666666667     0.916666666667     0.541050000000     0          
T        Si     0.240133333333     0.709733333333     0.694600000000     0          
T        Si     0.166666666667     0.979466666667     0.922100000000     0          
T        Si     0.166666666667     0.875200000000     0.853750000000     0          
T        Si     0.166666666667     0.875000000000     0.533000000000     0          
O        O      0.102333333333     0.816900000000     0.722900000000     0          
O        O      0.042900000000     0.792666666667     0.684300000000     0          
O        O      0.123833333333     0.800900000000     0.666000000000     0          
O        O      0.103666666667     0.750000000000     0.704750000000     0          
O        O      0.166666666667     0.813933333333     0.935350000000     0          
O        O      0.166666666667     0.852300000000     0.885100000000     0          
O        O      0.123900000000     0.968633333333     0.513550000000     0          
T        Si     0.093200000000     0.790266666667     0.694600000000     0          
T        Si     0.166666666667     0.853866666667     0.922100000000     0          
T        Si     0.166666666667     0.958133333333     0.853750000000     0          
T        Si     0.166666666667     0.958333333333     0.533000000000     0          
O        O      0.102333333333     0.683100000000     0.722900000000     0          
O        O      0.042900000000     0.707333333333     0.684300000000     0          
O        O      0.123833333333     0.699100000000     0.666000000000     0          
O        O      0.123900000000     0.864700000000     0.513550000000     0          
T        Si     0.093200000000     0.709733333333     0.694600000000     0          
T        Si     0.093933333333     0.666666666667     0.500000000000     0          
O        O      0.231000000000     0.816900000000     0.722900000000     0          
O        O      0.290433333333     0.792666666667     0.684300000000     0          
O        O      0.209500000000     0.800900000000     0.666000000000     0          
O        O      0.209433333333     0.968633333333     0.513550000000     0          
T        Si     0.240133333333     0.790266666667     0.694600000000     0          
T        Si     0.239400000000     0.833333333333     0.500000000000     0          
O        O      0.102333333333     0.983566666667     0.777100000000     0          
O        O      0.042900000000     0.959333333333     0.815700000000     0          
O        O      0.123833333333     0.967566666667     0.834000000000     0          
O        O      0.123900000000     0.801966666667     0.986450000000     0          
T        Si     0.093200000000     0.956933333333     0.805400000000     0          
O        O      0.231000000000     0.849766666667     0.777100000000     0          
O        O      0.290433333333     0.874000000000     0.815700000000     0          
O        O      0.209500000000     0.865766666667     0.834000000000     0          
O        O      0.209433333333     0.698033333333     0.986450000000     0          
T        Si     0.240133333333     0.876400000000     0.805400000000     0          
O        O      0.397666666667     0.150233333333     0.027100000000     0          
O        O      0.457100000000     0.126000000000     0.065700000000     0          
O        O      0.376166666667     0.134233333333     0.084000000000     0          
O        O      0.396333333333     0.083333333333     0.045250000000     0          
O        O      0.333333333333     0.147266666667     0.314650000000     0          
O        O      0.333333333333     0.185633333333     0.364900000000     0          
O        O      0.333333333333     0.250000000000     0.387450000000     0          
O        O      0.376100000000     0.301966666667     0.236450000000     0          
O        O      0.333333333333     0.250000000000     0.208950000000     0          
T        Si     0.406800000000     0.123600000000     0.055400000000     0          
T        Si     0.333333333333     0.187200000000     0.327900000000     0          
T        Si     0.333333333333     0.291466666667     0.396250000000     0          
T        Si     0.333333333333     0.291666666667     0.217000000000     0          
T        Si     0.406066666667     0.166666666667     0.250000000000     0          
O        O      0.602333333333     0.016433333333     0.027100000000     0          
O        O      0.542900000000     0.040666666667     0.065700000000     0          
O        O      0.623833333333     0.032433333333     0.084000000000     0          
O        O      0.603666666667     0.083333333333     0.045250000000     0          
O        O      0.333333333333     0.019400000000     0.314650000000     0          
O        O      0.333333333333     0.314366666667     0.364900000000     0          
O        O      0.623900000000     0.198033333333     0.236450000000     0          
T        Si     0.593200000000     0.043066666667     0.055400000000     0          
T        Si     0.333333333333     0.312800000000     0.327900000000     0          
T        Si     0.333333333333     0.208533333333     0.396250000000     0          
T        Si     0.333333333333     0.208333333333     0.217000000000     0          
T        Si     0.593933333333     0.000000000000     0.250000000000     0          
O        O      0.397666666667     0.183100000000     0.472900000000     0          
O        O      0.457100000000     0.207333333333     0.434300000000     0          
O        O      0.376166666667     0.199100000000     0.416000000000     0          
O        O      0.396333333333     0.250000000000     0.454750000000     0          
O        O      0.333333333333     0.186066666667     0.185350000000     0          
O        O      0.333333333333     0.147700000000     0.135100000000     0          
O        O      0.333333333333     0.083333333333     0.112550000000     0          
O        O      0.376100000000     0.031366666667     0.263550000000     0          
O        O      0.333333333333     0.083333333333     0.291050000000     0          
T        Si     0.406800000000     0.209733333333     0.444600000000     0          
T        Si     0.333333333333     0.146133333333     0.172100000000     0          
T        Si     0.333333333333     0.041866666667     0.103750000000     0          
T        Si     0.333333333333     0.041666666667     0.283000000000     0          
O        O      0.602333333333     0.316900000000     0.472900000000     0          
O        O      0.542900000000     0.292666666667     0.434300000000     0          
O        O      0.623833333333     0.300900000000     0.416000000000     0          
O        O      0.603666666667     0.250000000000     0.454750000000     0          
O        O      0.333333333333     0.313933333333     0.185350000000     0          
O        O      0.333333333333     0.018966666667     0.135100000000     0          
O        O      0.623900000000     0.135300000000     0.263550000000     0          
T        Si     0.593200000000     0.290266666667     0.444600000000     0          
T        Si     0.333333333333     0.020533333333     0.172100000000     0          
T        Si     0.333333333333     0.124800000000     0.103750000000     0          
T        Si     0.333333333333     0.125000000000     0.283000000000     0          
O        O      0.602333333333     0.183100000000     0.472900000000     0          
O        O      0.542900000000     0.207333333333     0.434300000000     0          
O        O      0.623833333333     0.199100000000     0.416000000000     0          
O        O      0.623900000000     0.031366666667     0.263550000000     0          
T        Si     0.593200000000     0.209733333333     0.444600000000     0          
T        Si     0.593933333333     0.166666666667     0.250000000000     0          
O        O      0.397666666667     0.316900000000     0.472900000000     0          
O        O      0.457100000000     0.292666666667     0.434300000000     0          
O        O      0.376166666667     0.300900000000     0.416000000000     0          
O        O      0.376100000000     0.135300000000     0.263550000000     0          
T        Si     0.406800000000     0.290266666667     0.444600000000     0          
T        Si     0.406066666667     0.000000000000     0.250000000000     0          
O        O      0.602333333333     0.150233333333     0.027100000000     0          
O        O      0.542900000000     0.126000000000     0.065700000000     0          
O        O      0.623833333333     0.134233333333     0.084000000000     0          
O        O      0.623900000000     0.301966666667     0.236450000000     0          
T        Si     0.593200000000     0.123600000000     0.055400000000     0          
O        O      0.397666666667     0.016433333333     0.027100000000     0          
O        O      0.457100000000     0.040666666667     0.065700000000     0          
O        O      0.376166666667     0.032433333333     0.084000000000     0          
O        O      0.376100000000     0.198033333333     0.236450000000     0          
T        Si     0.406800000000     0.043066666667     0.055400000000     0          
O        O      0.564333333333     0.316900000000     0.277100000000     0          
O        O      0.623766666667     0.292666666667     0.315700000000     0          
O        O      0.542833333333     0.300900000000     0.334000000000     0          
O        O      0.563000000000     0.250000000000     0.295250000000     0          
O        O      0.500000000000     0.313933333333     0.064650000000     0          
O        O      0.500000000000     0.018966666667     0.114900000000     0          
O        O      0.500000000000     0.083333333333     0.137450000000     0          
O        O      0.542766666667     0.135300000000     0.486450000000     0          
O        O      0.500000000000     0.083333333333     0.458950000000     0          
T        Si     0.573466666667     0.290266666667     0.305400000000     0          
T        Si     0.500000000000     0.020533333333     0.077900000000     0          
T        Si     0.500000000000     0.124800000000     0.146250000000     0          
T        Si     0.500000000000     0.125000000000     0.467000000000     0          
T        Si     0.572733333333     0.000000000000     0.000000000000     0          
O        O      0.435666666667     0.183100000000     0.277100000000     0          
O        O      0.376233333333     0.207333333333     0.315700000000     0          
O        O      0.457166666667     0.199100000000     0.334000000000     0          
O        O      0.437000000000     0.250000000000     0.295250000000     0          
O        O      0.500000000000     0.186066666667     0.064650000000     0          
O        O      0.500000000000     0.147700000000     0.114900000000     0          
O        O      0.457233333333     0.031366666667     0.486450000000     0          
T        Si     0.426533333333     0.209733333333     0.305400000000     0          
T        Si     0.500000000000     0.146133333333     0.077900000000     0          
T        Si     0.500000000000     0.041866666667     0.146250000000     0          
T        Si     0.500000000000     0.041666666667     0.467000000000     0          
T        Si     0.427266666667     0.166666666667     0.000000000000     0          
O        O      0.564333333333     0.016433333333     0.222900000000     0          
O        O      0.623766666667     0.040666666667     0.184300000000     0          
O        O      0.542833333333     0.032433333333     0.166000000000     0          
O        O      0.563000000000     0.083333333333     0.204750000000     0          
O        O      0.500000000000     0.019400000000     0.435350000000     0          
O        O      0.500000000000     0.314366666667     0.385100000000     0          
O        O      0.500000000000     0.250000000000     0.362550000000     0          
O        O      0.542766666667     0.198033333333     0.013550000000     0          
O        O      0.500000000000     0.250000000000     0.041050000000     0          
T        Si     0.573466666667     0.043066666667     0.194600000000     0          
T        Si     0.500000000000     0.312800000000     0.422100000000     0          
T        Si     0.500000000000     0.208533333333     0.353750000000     0          
T        Si     0.500000000000     0.208333333333     0.033000000000     0          
O        O      0.435666666667     0.150233333333     0.222900000000     0          
O        O      0.376233333333     0.126000000000     0.184300000000     0          
O        O      0.457166666667     0.134233333333     0.166000000000     0          
O        O      0.437000000000     0.083333333333     0.204750000000     0          
O        O      0.500000000000     0.147266666667     0.435350000000     0          
O        O      0.500000000000     0.185633333333     0.385100000000     0          
O        O      0.457233333333     0.301966666667     0.013550000000     0          
T        Si     0.426533333333     0.123600000000     0.194600000000     0          
T        Si     0.500000000000     0.187200000000     0.422100000000     0          
T        Si     0.500000000000     0.291466666667     0.353750000000     0          
T        Si     0.500000000000     0.291666666667     0.033000000000     0          
O        O      0.435666666667     0.016433333333     0.222900000000     0          
O        O      0.376233333333     0.040666666667     0.184300000000     0          
O        O      0.457166666667     0.032433333333     0.166000000000     0          
O        O      0.457233333333     0.198033333333     0.013550000000     0          
T        Si     0.426533333333     0.043066666667     0.194600000000     0          
T        Si     0.427266666667     0.000000000000     0.000000000000     0          
O        O      0.564333333333     0.150233333333     0.222900000000     0          
O        O      0.623766666667     0.126000000000     0.184300000000     0          
O        O      0.542833333333     0.134233333333     0.166000000000     0          
O        O      0.542766666667     0.301966666667     0.013550000000     0          
T        Si     0.573466666667     0.123600000000     0.194600000000     0          
T        Si     0.572733333333     0.166666666667     0.000000000000     0          
O        O      0.435666666667     0.316900000000     0.277100000000     0          
O        O      0.376233333333     0.292666666667     0.315700000000     0          
O        O      0.457166666667     0.300900000000     0.334000000000     0          
O        O      0.457233333333     0.135300000000     0.486450000000     0          
T        Si     0.426533333333     0.290266666667     0.305400000000     0          
O        O      0.564333333333     0.183100000000     0.277100000000     0          
O        O      0.623766666667     0.207333333333     0.315700000000     0          
O        O      0.542833333333     0.199100000000     0.334000000000     0          
O        O      0.542766666667     0.031366666667     0.486450000000     0          
T        Si     0.573466666667     0.209733333333     0.305400000000     0          
O        O      0.397666666667     0.150233333333     0.527100000000     0          
O        O      0.457100000000     0.126000000000     0.565700000000     0          
O        O      0.376166666667     0.134233333333     0.584000000000     0          
O        O      0.396333333333     0.083333333333     0.545250000000     0          
O        O      0.333333333333     0.147266666667     0.814650000000     0          
O        O      0.333333333333     0.185633333333     0.864900000000     0          
O        O      0.333333333333     0.250000000000     0.887450000000     0          
O        O      0.376100000000     0.301966666667     0.736450000000     0          
O        O      0.333333333333     0.250000000000     0.708950000000     0          
T        Si     0.406800000000     0.123600000000     0.555400000000     0          
T        Si     0.333333333333     0.187200000000     0.827900000000     0          
T        Si     0.333333333333     0.291466666667     0.896250000000     0          
T        Si     0.333333333333     0.291666666667     0.717000000000     0          
T        Si     0.406066666667     0.166666666667     0.750000000000     0          
O        O      0.602333333333     0.016433333333     0.527100000000     0          
O        O      0.542900000000     0.040666666667     0.565700000000     0          
O        O      0.623833333333     0.032433333333     0.584000000000     0          
O        O      0.603666666667     0.083333333333     0.545250000000     0          
O        O      0.333333333333     0.019400000000     0.814650000000     0          
O        O      0.333333333333     0.314366666667     0.864900000000     0          
O        O      0.623900000000     0.198033333333     0.736450000000     0          
T        Si     0.593200000000     0.043066666667     0.555400000000     0          
T        Si     0.333333333333     0.312800000000     0.827900000000     0          
T        Si     0.333333333333     0.208533333333     0.896250000000     0          
T        Si     0.333333333333     0.208333333333     0.717000000000     0          
T        Si     0.593933333333     0.000000000000     0.750000000000     0          
O        O      0.397666666667     0.183100000000     0.972900000000     0          
O        O      0.457100000000     0.207333333333     0.934300000000     0          
O        O      0.376166666667     0.199100000000     0.916000000000     0          
O        O      0.396333333333     0.250000000000     0.954750000000     0          
O        O      0.333333333333     0.186066666667     0.685350000000     0          
O        O      0.333333333333     0.147700000000     0.635100000000     0          
O        O      0.333333333333     0.083333333333     0.612550000000     0          
O        O      0.376100000000     0.031366666667     0.763550000000     0          
O        O      0.333333333333     0.083333333333     0.791050000000     0          
T        Si     0.406800000000     0.209733333333     0.944600000000     0          
T        Si     0.333333333333     0.146133333333     0.672100000000     0          
T        Si     0.333333333333     0.041866666667     0.603750000000     0          
T        Si     0.333333333333     0.041666666667     0.783000000000     0          
O        O      0.602333333333     0.316900000000     0.972900000000     0          
O        O      0.542900000000     0.292666666667     0.934300000000     0          
O        O      0.623833333333     0.300900000000     0.916000000000     0          
O        O      0.603666666667     0.250000000000     0.954750000000     0          
O        O      0.333333333333     0.313933333333     0.685350000000     0          
O        O      0.333333333333     0.018966666667     0.635100000000     0          
O        O      0.623900000000     0.135300000000     0.763550000000     0          
T        Si     0.593200000000     0.290266666667     0.944600000000     0          
T        Si     0.333333333333     0.020533333333     0.672100000000     0          
T        Si     0.333333333333     0.124800000000     0.603750000000     0          
T        Si     0.333333333333     0.125000000000     0.783000000000     0          
O        O      0.602333333333     0.183100000000     0.972900000000     0          
O        O      0.542900000000     0.207333333333     0.934300000000     0          
O        O      0.623833333333     0.199100000000     0.916000000000     0          
O        O      0.623900000000     0.031366666667     0.763550000000     0          
T        Si     0.593200000000     0.209733333333     0.944600000000     0          
T        Si     0.593933333333     0.166666666667     0.750000000000     0          
O        O      0.397666666667     0.316900000000     0.972900000000     0          
O        O      0.457100000000     0.292666666667     0.934300000000     0          
O        O      0.376166666667     0.300900000000     0.916000000000     0          
O        O      0.376100000000     0.135300000000     0.763550000000     0          
T        Si     0.406800000000     0.290266666667     0.944600000000     0          
T        Si     0.406066666667     0.000000000000     0.750000000000     0          
O        O      0.602333333333     0.150233333333     0.527100000000     0          
O        O      0.542900000000     0.126000000000     0.565700000000     0          
O        O      0.623833333333     0.134233333333     0.584000000000     0          
O        O      0.623900000000     0.301966666667     0.736450000000     0          
T        Si     0.593200000000     0.123600000000     0.555400000000     0          
O        O      0.397666666667     0.016433333333     0.527100000000     0          
O        O      0.457100000000     0.040666666667     0.565700000000     0          
O        O      0.376166666667     0.032433333333     0.584000000000     0          
O        O      0.376100000000     0.198033333333     0.736450000000     0          
T        Si     0.406800000000     0.043066666667     0.555400000000     0          
O        O      0.564333333333     0.316900000000     0.777100000000     0          
O        O      0.623766666667     0.292666666667     0.815700000000     0          
O        O      0.542833333333     0.300900000000     0.834000000000     0          
O        O      0.563000000000     0.250000000000     0.795250000000     0          
O        O      0.500000000000     0.313933333333     0.564650000000     0          
O        O      0.500000000000     0.018966666667     0.614900000000     0          
O        O      0.500000000000     0.083333333333     0.637450000000     0          
O        O      0.542766666667     0.135300000000     0.986450000000     0          
O        O      0.500000000000     0.083333333333     0.958950000000     0          
T        Si     0.573466666667     0.290266666667     0.805400000000     0          
T        Si     0.500000000000     0.020533333333     0.577900000000     0          
T        Si     0.500000000000     0.124800000000     0.646250000000     0          
T        Si     0.500000000000     0.125000000000     0.967000000000     0          
T        Si     0.572733333333     0.000000000000     0.500000000000     0          
O        O      0.435666666667     0.183100000000     0.777100000000     0          
O        O      0.376233333333     0.207333333333     0.815700000000     0          
O        O      0.457166666667     0.199100000000     0.834000000000     0          
O        O      0.437000000000     0.250000000000     0.795250000000     0          
O        O      0.500000000000     0.186066666667     0.564650000000     0          
O        O      0.500000000000     0.147700000000     0.614900000000     0          
O        O      0.457233333333     0.031366666667     0.986450000000     0          
T        Si     0.426533333333     0.209733333333     0.805400000000     0          
T        Si     0.500000000000     0.146133333333     0.577900000000     0          
T        Si     0.500000000000     0.041866666667     0.646250000000     0          
T        Si     0.500000000000     0.041666666667     0.967000000000     0          
T        Si     0.427266666667     0.166666666667     0.500000000000     0          
O        O      0.564333333333     0.016433333333     0.722900000000     0          
O        O      0.623766666667     0.040666666667     0.684300000000     0          
O        O      0.542833333333     0.032433333333     0.666000000000     0          
O        O      0.563000000000     0.083333333333     0.704750000000     0          
O        O      0.500000000000     0.019400000000     0.935350000000     0          
O        O      0.500000000000     0.314366666667     0.885100000000     0          
O        O      0.500000000000     0.250000000000     0.862550000000     0          
O        O      0.542766666667     0.198033333333     0.513550000000     0          
O        O      0.500000000000     0.250000000000     0.541050000000     0          
T        Si     0.573466666667     0.043066666667     0.694600000000     0          
T        Si     0.500000000000     0.312800000000     0.922100000000     0          
T        Si     0.500000000000     0.208533333333     0.853750000000     0          
T        Si     0.500000000000     0.208333333333     0.533000000000     0          
O        O      0.435666666667     0.150233333333     0.722900000000     0          
O        O      0.376233333333     0.126000000000     0.684300000000     0          
O        O      0.457166666667     0.134233333333     0.666000000000     0          
O        O      0.437000000000     0.083333333333     0.704750000000     0          
O        O      0.500000000000     0.147266666667     0.935350000000     0          
O        O      0.500000000000     0.185633333333     0.885100000000     0          
O        O      0.457233333333     0.301966666667     0.513550000000     0          
T        Si     0.426533333333     0.123600000000     0.694600000000     0          
T        Si     0.500000000000     0.187200000000     0.922100000000     0          
T        Si     0.500000000000     0.291466666667     0.853750000000     0          
T        Si     0.500000000000     0.291666666667     0.533000000000     0          
O        O      0.435666666667     0.016433333333     0.722900000000     0          
O        O      0.376233333333     0.040666666667     0.684300000000     0          
O        O      0.457166666667     0.032433333333     0.666000000000     0          
O        O      0.457233333333     0.198033333333     0.513550000000     0          
T        Si     0.426533333333     0.043066666667     0.694600000000     0          
T        Si     0.427266666667     0.000000000000     0.500000000000     0          
O        O      0.564333333333     0.150233333333     0.722900000000     0          
O        O      0.623766666667     0.126000000000     0.684300000000     0          
O        O      0.542833333333     0.134233333333     0.666000000000     0          
O        O      0.542766666667     0.301966666667     0.513550000000     0          
T        Si     0.573466666667     0.123600000000     0.694600000000     0          
T        Si     0.572733333333     0.166666666667     0.500000000000     0          
O        O      0.435666666667     0.316900000000     0.777100000000     0          
O        O      0.376233333333     0.292666666667     0.815700000000     0          
O        O      0.457166666667     0.300900000000     0.834000000000     0          
O        O      0.457233333333     0.135300000000     0.986450000000     0          
T        Si     0.426533333333     0.290266666667     0.805400000000     0          
O        O      0.564333333333     0.183100000000     0.777100000000     0          
O        O      0.623766666667     0.207333333333     0.815700000000     0          
O        O      0.542833333333     0.199100000000     0.834000000000     0          
O        O      0.542766666667     0.031366666667     0.986450000000     0          
T        Si     0.573466666667     0.209733333333     0.805400000000     0          
O        O      0.397666666667     0.483566666667     0.027100000000     0          
O        O      0.457100000000     0.459333333333     0.065700000000     0          
O        O      0.376166666667     0.467566666667     0.084000000000     0          
O        O      0.396333333333     0.416666666667     0.045250000000     0          
O        O      0.333333333333     0.480600000000     0.314650000000     0          
O        O      0.333333333333     0.518966666667     0.364900000000     0          
O        O      0.333333333333     0.583333333333     0.387450000000     0          
O        O      0.376100000000     0.635300000000     0.236450000000     0          
O        O      0.333333333333     0.583333333333     0.208950000000     0          
T        Si     0.406800000000     0.456933333333     0.055400000000     0          
T        Si     0.333333333333     0.520533333333     0.327900000000     0          
T        Si     0.333333333333     0.624800000000     0.396250000000     0          
T        Si     0.333333333333     0.625000000000     0.217000000000     0          
T        Si     0.406066666667     0.500000000000     0.250000000000     0          
O        O      0.602333333333     0.349766666667     0.027100000000     0          
O        O      0.542900000000     0.374000000000     0.065700000000     0          
O        O      0.623833333333     0.365766666667     0.084000000000     0          
O        O      0.603666666667     0.416666666667     0.045250000000     0          
O        O      0.333333333333     0.352733333333     0.314650000000     0          
O        O      0.333333333333     0.647700000000     0.364900000000     0          
O        O      0.623900000000     0.531366666667     0.236450000000     0          
T        Si     0.593200000000     0.376400000000     0.055400000000     0          
T        Si     0.333333333333     0.646133333333     0.327900000000     0          
T        Si     0.333333333333     0.541866666667     0.396250000000     0          
T        Si     0.333333333333     0.541666666667     0.217000000000     0          
T        Si     0.593933333333     0.333333333333     0.250000000000     0          
O        O      0.397666666667     0.516433333333     0.472900000000     0          
O        O      0.457100000000     0.540666666667     0.434300000000     0          
O        O      0.376166666667     0.532433333333     0.416000000000     0          
O        O      0.396333333333     0.583333333333     0.454750000000     0          
O        O      0.333333333333     0.519400000000     0.185350000000     0          
O        O      0.333333333333     0.481033333333     0.135100000000     0          
O        O      0.333333333333     0.416666666667     0.112550000000     0          
O        O      0.376100000000     0.364700000000     0.263550000000     0          
O        O      0.333333333333     0.416666666667     0.291050000000     0          
T        Si     0.406800000000     0.543066666667     0.444600000000     0          
T        Si     0.333333333333     0.479466666667     0.172100000000     0          
T        Si     0.333333333333     0.375200000000     0.103750000000     0          
T        Si     0.333333333333     0.375000000000     0.283000000000     0          
O        O      0.602333333333     0.650233333333     0.472900000000     0          
O        O      0.542900000000     0.626000000000     0.434300000000     0          
O        O      0.623833333333     0.634233333333     0.416000000000     0          
O        O      0.603666666667     0.583333333333     0.454750000000     0          
O        O      0.333333333333     0.647266666667     0.185350000000     0          
O        O      0.333333333333     0.352300000000     0.135100000000     0          
O        O      0.623900000000     0.468633333333     0.263550000000     0          
T        Si     0.593200000000     0.623600000000     0.444600000000     0          
T        Si     0.333333333333     0.353866666667     0.172100000000     0          
T        Si     0.333333333333     0.458133333333     0.103750000000     0          
T        Si     0.333333333333     0.458333333333     0.283000000000     0          
O        O      0.602333333333     0.516433333333     0.472900000000     0          
O        O      0.542900000000     0.540666666667     0.434300000000     0          
O        O      0.623833333333     0.532433333333     0.416000000000     0          
O        O      0.623900000000     0.364700000000     0.263550000000     0          
T        Si     0.593200000000     0.543066666667     0.444600000000     0          
T        Si     0.593933333333     0.500000000000     0.250000000000     0          
O        O      0.397666666667     0.650233333333     0.472900000000     0          
O        O      0.457100000000     0.626000000000     0.434300000000     0          
O        O      0.376166666667     0.634233333333     0.416000000000     0          
O        O      0.376100000000     0.468633333333     0.263550000000     0          
T        Si     0.406800000000     0.623600000000     0.444600000000     0          
T        Si     0.406066666667     0.333333333333     0.250000000000     0          
O        O      0.602333333333     0.483566666667     0.027100000000     0          
O        O      0.542900000000     0.459333333333     0.065700000000     0          
O        O      0.623833333333     0.467566666667     0.084000000000     0          
O        O      0.623900000000     0.635300000000     0.236450000000     0          
T        Si     0.593200000000     0.456933333333     0.055400000000     0          
O        O      0.397666666667     0.349766666667     0.027100000000     0          
O        O      0.457100000000     0.374000000000     0.065700000000     0          
O        O      0.376166666667     0.365766666667     0.084000000000     0          
O        O      0.376100000000     0.531366666667     0.236450000000     0          
T        Si     0.406800000000     0.376400000000     0.055400000000     0          
O        O      0.564333333333     0.650233333333     0.277100000000     0          
O        O      0.623766666667     0.626000000000     0.315700000000     0          
O        O      0.542833333333     0.634233333333     0.334000000000     0          
O        O      0.563000000000     0.583333333333     0.295250000000     0          
O        O      0.500000000000     0.647266666667     0.064650000000     0          
O        O      0.500000000000     0.352300000000     0.114900000000     0          
O        O      0.500000000000     0.416666666667     0.137450000000     0          
O        O      0.542766666667     0.468633333333     0.486450000000     0          
O        O      0.500000000000     0.416666666667     0.458950000000     0          
T        Si     0.573466666667     0.623600000000     0.305400000000     0          
T        Si     0.500000000000     0.353866666667     0.077900000000     0          
T        Si     0.500000000000     0.458133333333     0.146250000000     0          
T        Si     0.500000000000     0.458333333333     0.467000000000     0          
T        Si     0.572733333333     0.333333333333     0.000000000000     0          
O        O      0.435666666667     0.516433333333     0.277100000000     0          
O        O      0.376233333333     0.540666666667     0.315700000000     0          
O        O      0.457166666667     0.532433333333     0.334000000000     0          
O        O      0.437000000000     0.583333333333     0.295250000000     0          
O        O      0.500000000000     0.519400000000     0.064650000000     0          
O        O      0.500000000000     0.481033333333     0.114900000000     0          
O        O      0.457233333333     0.364700000000     0.486450000000     0          
T        Si     0.426533333333     0.543066666667     0.305400000000     0          
T        Si     0.500000000000     0.479466666667     0.077900000000     0          
T        Si     0.500000000000     0.375200000000     0.146250000000     0          
T        Si     0.500000000000     0.375000000000     0.467000000000     0          
T        Si     0.427266666667     0.500000000000     0.000000000000     0          
O        O      0.564333333333     0.349766666667     0.222900000000     0          
O        O      0.623766666667     0.374000000000     0.184300000000     0          
O        O      0.542833333333     0.365766666667     0.166000000000     0          
O        O      0.563000000000     0.416666666667     0.204750000000     0          
O        O      0.500000000000     0.352733333333     0.435350000000     0          
O        O      0.500000000000     0.647700000000     0.385100000000     0          
O        O      0.500000000000     0.583333333333     0.362550000000     0          
O        O      0.542766666667     0.531366666667     0.013550000000     0          
O        O      0.500000000000     0.583333333333     0.041050000000     0          
T        Si     0.573466666667     0.376400000000     0.194600000000     0          
T        Si     0.500000000000     0.646133333333     0.422100000000     0          
T        Si     0.500000000000     0.541866666667     0.353750000000     0          
T        Si     0.500000000000     0.541666666667     0.033000000000     0          
O        O      0.435666666667     0.483566666667     0.222900000000     0          
O        O      0.376233333333     0.459333333333     0.184300000000     0          
O        O      0.457166666667     0.467566666667     0.166000000000     0          
O        O      0.437000000000     0.416666666667     0.204750000000     0          
O        O      0.500000000000     0.480600000000     0.435350000000     0          
O        O      0.500000000000     0.518966666667     0.385100000000     0          
O        O      0.457233333333     0.635300000000     0.013550000000     0          
T        Si     0.426533333333     0.456933333333     0.194600000000     0          
T        Si     0.500000000000     0.520533333333     0.422100000000     0          
T        Si     0.500000000000     0.624800000000     0.353750000000     0          
T        Si     0.500000000000     0.625000000000     0.033000000000     0          
O        O      0.435666666667     0.349766666667     0.222900000000     0          
O        O      0.376233333333     0.374000000000     0.184300000000     0          
O        O      0.457166666667     0.365766666667     0.166000000000     0          
O        O      0.457233333333     0.531366666667     0.013550000000     0          
T        Si     0.426533333333     0.376400000000     0.194600000000     0          
T        Si     0.427266666667     0.333333333333     0.000000000000     0          
O        O      0.564333333333     0.483566666667     0.222900000000     0          
O        O      0.623766666667     0.459333333333     0.184300000000     0          
O        O      0.542833333333     0.467566666667     0.166000000000     0          
O        O      0.542766666667     0.635300000000     0.013550000000     0          
T        Si     0.573466666667     0.456933333333     0.194600000000     0          
T        Si     0.572733333333     0.500000000000     0.000000000000     0          
O        O      0.435666666667     0.650233333333     0.277100000000     0          
O        O      0.376233333333     0.626000000000     0.315700000000     0          
O        O      0.457166666667     0.634233333333     0.334000000000     0          
O        O      0.457233333333     0.468633333333     0.486450000000     0          
T        Si     0.426533333333     0.623600000000     0.305400000000     0          
O        O      0.564333333333     0.516433333333     0.277100000000     0          
O        O      0.623766666667     0.540666666667     0.315700000000     0          
O        O      0.542833333333     0.532433333333     0.334000000000     0          
O        O      0.542766666667     0.364700000000     0.486450000000     0          
T        Si     0.573466666667     0.543066666667     0.305400000000     0          
O        O      0.397666666667     0.483566666667     0.527100000000     0          
O        O      0.457100000000     0.459333333333     0.565700000000     0          
O        O      0.376166666667     0.467566666667     0.584000000000     0          
O        O      0.396333333333     0.416666666667     0.545250000000     0          
O        O      0.333333333333     0.480600000000     0.814650000000     0          
O        O      0.333333333333     0.518966666667     0.864900000000     0          
O        O      0.333333333333     0.583333333333     0.887450000000     0          
O        O      0.376100000000     0.635300000000     0.736450000000     0          
O        O      0.333333333333     0.583333333333     0.708950000000     0          
T        Si     0.406800000000     0.456933333333     0.555400000000     0          
T        Si     0.333333333333     0.520533333333     0.827900000000     0          
T        Si     0.333333333333     0.624800000000     0.896250000000     0          
T        Si     0.333333333333     0.625000000000     0.717000000000     0          
T        Si     0.406066666667     0.500000000000     0.750000000000     0          
O        O      0.602333333333     0.349766666667     0.527100000000     0          
O        O      0.542900000000     0.374000000000     0.565700000000     0          
O        O      0.623833333333     0.365766666667     0.584000000000     0          
O        O      0.603666666667     0.416666666667     0.545250000000     0          
O        O      0.333333333333     0.352733333333     0.814650000000     0          
O        O      0.333333333333     0.647700000000     0.864900000000     0          
O        O      0.623900000000     0.531366666667     0.736450000000     0          
T        Si     0.593200000000     0.376400000000     0.555400000000     0          
T        Si     0.333333333333     0.646133333333     0.827900000000     0          
T        Si     0.333333333333     0.541866666667     0.896250000000     0          
T        Si     0.333333333333     0.541666666667     0.717000000000     0          
T        Si     0.593933333333     0.333333333333     0.750000000000     0          
O        O      0.397666666667     0.516433333333     0.972900000000     0          
O        O      0.457100000000     0.540666666667     0.934300000000     0          
O        O      0.376166666667     0.532433333333     0.916000000000     0          
O        O      0.396333333333     0.583333333333     0.954750000000     0          
O        O      0.333333333333     0.519400000000     0.685350000000     0          
O        O      0.333333333333     0.481033333333     0.635100000000     0          
O        O      0.333333333333     0.416666666667     0.612550000000     0          
O        O      0.376100000000     0.364700000000     0.763550000000     0          
O        O      0.333333333333     0.416666666667     0.791050000000     0          
T        Si     0.406800000000     0.543066666667     0.944600000000     0          
T        Si     0.333333333333     0.479466666667     0.672100000000     0          
T        Si     0.333333333333     0.375200000000     0.603750000000     0          
T        Si     0.333333333333     0.375000000000     0.783000000000     0          
O        O      0.602333333333     0.650233333333     0.972900000000     0          
O        O      0.542900000000     0.626000000000     0.934300000000     0          
O        O      0.623833333333     0.634233333333     0.916000000000     0          
O        O      0.603666666667     0.583333333333     0.954750000000     0          
O        O      0.333333333333     0.647266666667     0.685350000000     0          
O        O      0.333333333333     0.352300000000     0.635100000000     0          
O        O      0.623900000000     0.468633333333     0.763550000000     0          
T        Si     0.593200000000     0.623600000000     0.944600000000     0          
T        Si     0.333333333333     0.353866666667     0.672100000000     0          
T        Si     0.333333333333     0.458133333333     0.603750000000     0          
T        Si     0.333333333333     0.458333333333     0.783000000000     0          
O        O      0.602333333333     0.516433333333     0.972900000000     0          
O        O      0.542900000000     0.540666666667     0.934300000000     0          
O        O      0.623833333333     0.532433333333     0.916000000000     0          
O        O      0.623900000000     0.364700000000     0.763550000000     0          
T        Si     0.593200000000     0.543066666667     0.944600000000     0          
T        Si     0.593933333333     0.500000000000     0.750000000000     0          
O        O      0.397666666667     0.650233333333     0.972900000000     0          
O        O      0.457100000000     0.626000000000     0.934300000000     0          
O        O      0.376166666667     0.634233333333     0.916000000000     0          
O        O      0.376100000000     0.468633333333     0.763550000000     0          
T        Si     0.406800000000     0.623600000000     0.944600000000     0          
T        Si     0.406066666667     0.333333333333     0.750000000000     0          
O        O      0.602333333333     0.483566666667     0.527100000000     0          
O        O      0.542900000000     0.459333333333     0.565700000000     0          
O        O      0.623833333333     0.467566666667     0.584000000000     0          
O        O      0.623900000000     0.635300000000     0.736450000000     0          
T        Si     0.593200000000     0.456933333333     0.555400000000     0          
O        O      0.397666666667     0.349766666667     0.527100000000     0          
O        O      0.457100000000     0.374000000000     0.565700000000     0          
O        O      0.376166666667     0.365766666667     0.584000000000     0          
O        O      0.376100000000     0.531366666667     0.736450000000     0          
T        Si     0.406800000000     0.376400000000     0.555400000000     0          
O        O      0.564333333333     0.650233333333     0.777100000000     0          
O        O      0.623766666667     0.626000000000     0.815700000000     0          
O        O      0.542833333333     0.634233333333     0.834000000000     0          
O        O      0.563000000000     0.583333333333     0.795250000000     0          
O        O      0.500000000000     0.647266666667     0.564650000000     0          
O        O      0.500000000000     0.352300000000     0.614900000000     0          
O        O      0.500000000000     0.416666666667     0.637450000000     0          
O        O      0.542766666667     0.468633333333     0.986450000000     0          
O        O      0.500000000000     0.416666666667     0.958950000000     0          
T        Si     0.573466666667     0.623600000000     0.805400000000     0          
T        Si     0.500000000000     0.353866666667     0.577900000000     0          
T        Si     0.500000000000     0.458133333333     0.646250000000     0          
T        Si     0.500000000000     0.458333333333     0.967000000000     0          
T        Si     0.572733333333     0.333333333333     0.500000000000     0          
O        O      0.435666666667     0.516433333333     0.777100000000     0          
O        O      0.376233333333     0.540666666667     0.815700000000     0          
O        O      0.457166666667     0.532433333333     0.834000000000     0          
O        O      0.437000000000     0.583333333333     0.795250000000     0          
O        O      0.500000000000     0.519400000000     0.564650000000     0          
O        O      0.500000000000     0.481033333333     0.614900000000     0          
O        O      0.457233333333     0.364700000000     0.986450000000     0          
T        Si     0.426533333333     0.543066666667     0.805400000000     0          
T        Si     0.500000000000     0.479466666667     0.577900000000     0          
T        Si     0.500000000000     0.375200000000     0.646250000000     0          
T        Si     0.500000000000     0.375000000000     0.967000000000     0          
T        Si     0.427266666667     0.500000000000     0.500000000000     0          
O        O      0.564333333333     0.349766666667     0.722900000000     0          
O        O      0.623766666667     0.374000000000     0.684300000000     0          
O        O      0.542833333333     0.365766666667     0.666000000000     0          
O        O      0.563000000000     0.416666666667     0.704750000000     0          
O        O      0.500000000000     0.352733333333     0.935350000000     0          
O        O      0.500000000000     0.647700000000     0.885100000000     0          
O        O      0.500000000000     0.583333333333     0.862550000000     0          
O        O      0.542766666667     0.531366666667     0.513550000000     0          
O        O      0.500000000000     0.583333333333     0.541050000000     0          
T        Si     0.573466666667     0.376400000000     0.694600000000     0          
T        Si     0.500000000000     0.646133333333     0.922100000000     0          
T        Si     0.500000000000     0.541866666667     0.853750000000     0          
T        Si     0.500000000000     0.541666666667     0.533000000000     0          
O        O      0.435666666667     0.483566666667     0.722900000000     0          
O        O      0.376233333333     0.459333333333     0.684300000000     0          
O        O      0.457166666667     0.467566666667     0.666000000000     0          
O        O      0.437000000000     0.416666666667     0.704750000000     0          
O        O      0.500000000000     0.480600000000     0.935350000000     0          
O        O      0.500000000000     0.518966666667     0.885100000000     0          
O        O      0.457233333333     0.635300000000     0.513550000000     0          
T        Si     0.426533333333     0.456933333333     0.694600000000     0          
T        Si     0.500000000000     0.520533333333     0.922100000000     0          
T        Si     0.500000000000     0.624800000000     0.853750000000     0          
T        Si     0.500000000000     0.625000000000     0.533000000000     0          
O        O      0.435666666667     0.349766666667     0.722900000000     0          
O        O      0.376233333333     0.374000000000     0.684300000000     0          
O        O      0.457166666667     0.365766666667     0.666000000000     0          
O        O      0.457233333333     0.531366666667     0.513550000000     0          
T        Si     0.426533333333     0.376400000000     0.694600000000     0          
T        Si     0.427266666667     0.333333333333     0.500000000000     0          
O        O      0.564333333333     0.483566666667     0.722900000000     0          
O        O      0.623766666667     0.459333333333     0.684300000000     0          
O        O      0.542833333333     0.467566666667     0.666000000000     0          
O        O      0.542766666667     0.635300000000     0.513550000000     0          
T        Si     0.573466666667     0.456933333333     0.694600000000     0          
T        Si     0.572733333333     0.500000000000     0.500000000000     0          
O        O      0.435666666667     0.650233333333     0.777100000000     0          
O        O      0.376233333333     0.626000000000     0.815700000000     0          
O        O      0.457166666667     0.634233333333     0.834000000000     0          
O        O      0.457233333333     0.468633333333     0.986450000000     0          
T        Si     0.426533333333     0.623600000000     0.805400000000     0          
O        O      0.564333333333     0.516433333333     0.777100000000     0          
O        O      0.623766666667     0.540666666667     0.815700000000     0          
O        O      0.542833333333     0.532433333333     0.834000000000     0          
O        O      0.542766666667     0.364700000000     0.986450000000     0          
T        Si     0.573466666667     0.543066666667     0.805400000000     0          
O        O      0.397666666667     0.816900000000     0.027100000000     0          
O        O      0.457100000000     0.792666666667     0.065700000000     0          
O        O      0.376166666667     0.800900000000     0.084000000000     0          
O        O      0.396333333333     0.750000000000     0.045250000000     0          
O        O      0.333333333333     0.813933333333     0.314650000000     0          
O        O      0.333333333333     0.852300000000     0.364900000000     0          
O        O      0.333333333333     0.916666666667     0.387450000000     0          
O        O      0.376100000000     0.968633333333     0.236450000000     0          
O        O      0.333333333333     0.916666666667     0.208950000000     0          
T        Si     0.406800000000     0.790266666667     0.055400000000     0          
T        Si     0.333333333333     0.853866666667     0.327900000000     0          
T        Si     0.333333333333     0.958133333333     0.396250000000     0          
T        Si     0.333333333333     0.958333333333     0.217000000000     0          
T        Si     0.406066666667     0.833333333333     0.250000000000     0          
O        O      0.602333333333     0.683100000000     0.027100000000     0          
O        O      0.542900000000     0.707333333333     0.065700000000     0          
O        O      0.623833333333     0.699100000000     0.084000000000     0          
O        O      0.603666666667     0.750000000000     0.045250000000     0          
O        O      0.333333333333     0.686066666667     0.314650000000     0          
O        O      0.333333333333     0.981033333333     0.364900000000     0          
O        O      0.623900000000     0.864700000000     0.236450000000     0          
T        Si     0.593200000000     0.709733333333     0.055400000000     0          
T        Si     0.333333333333     0.979466666667     0.327900000000     0          
T        Si     0.333333333333     0.875200000000     0.396250000000     0          
T        Si     0.333333333333     0.875000000000     0.217000000000     0          
T        Si     0.593933333333     0.666666666667     0.250000000000     0          
O        O      0.397666666667     0.849766666667     0.472900000000     0          
O        O      0.457100000000     0.874000000000     0.434300000000     0          
O        O      0.376166666667     0.865766666667     0.416000000000     0          
O        O      0.396333333333     0.916666666667     0.454750000000     0          
O        O      0.333333333333     0.852733333333     0.185350000000     0          
O        O      0.333333333333     0.814366666667     0.135100000000     0          
O        O      0.333333333333     0.750000000000     0.112550000000     0          
O        O      0.376100000000     0.698033333333     0.263550000000     0          
O        O      0.333333333333     0.750000000000     0.291050000000     0          
T        Si     0.406800000000     0.876400000000     0.444600000000     0          
T        Si     0.333333333333     0.812800000000     0.172100000000     0          
T        Si     0.333333333333     0.708533333333     0.103750000000     0          
T        Si     0.333333333333     0.708333333333     0.283000000000     0          
O        O      0.602333333333     0.983566666667     0.472900000000     0          
O        O      0.542900000000     0.959333333333     0.434300000000     0          
O        O      0.623833333333     0.967566666667     0.416000000000     0          
O        O      0.603666666667     0.916666666667     0.454750000000     0          
O        O      0.333333333333     0.980600000000     0.185350000000     0          
O        O      0.333333333333     0.685633333333     0.135100000000     0          
O        O      0.623900000000     0.801966666667     0.263550000000     0          
T        Si     0.593200000000     0.956933333333     0.444600000000     0          
T        Si     0.333333333333     0.687200000000     0.172100000000     0          
T        Si     0.333333333333     0.791466666667     0.103750000000     0          
T        Si     0.333333333333     0.791666666667     0.283000000000     0          
O        O      0.602333333333     0.849766666667     0.472900000000     0          
O        O      0.542900000000     0.874000000000     0.434300000000     0          
O        O      0.623833333333     0.865766666667     0.416000000000     0          
O        O      0.623900000000     0.698033333333     0.263550000000     0          
T        Si     0.593200000000     0.876400000000     0.444600000000     0          
T        Si     0.593933333333     0.833333333333     0.250000000000     0          
O        O      0.397666666667     0.983566666667     0.472900000000     0          
O        O      0.457100000000     0.959333333333     0.434300000000     0          
O        O      0.376166666667     0.967566666667     0.416000000000     0          
O        O      0.376100000000     0.801966666667     0.263550000000     0          
T        Si     0.406800000000     0.956933333333     0.444600000000     0          
T        Si     0.406066666667     0.666666666667     0.250000000000     0          
O        O      0.602333333333     0.816900000000     0.027100000000     0          
O        O      0.542900000000     0.792666666667     0.065700000000     0          
O        O      0.623833333333     0.800900000000     0.084000000000     0          
O        O      0.623900000000     0.968633333333     0.236450000000     0          
T        Si     0.593200000000     0.790266666667     0.055400000000     0          
O        O      0.397666666667     0.683100000000     0.027100000000     0          
O        O      0.457100000000     0.707333333333     0.065700000000     0          
O        O      0.376166666667     0.699100000000     0.084000000000     0          
O        O      0.376100000000     0.864700000000     0.236450000000     0          
T        Si     0.406800000000     0.709733333333     0.055400000000     0          
O        O      0.564333333333     0.983566666667     0.277100000000     0          
O        O      0.623766666667     0.959333333333     0.315700000000     0          
O        O      0.542833333333     0.967566666667     0.334000000000     0          
O        O      0.563000000000     0.916666666667     0.295250000000     0          
O        O      0.500000000000     0.980600000000     0.064650000000     0          
O        O      0.500000000000     0.685633333333     0.114900000000     0          
O        O      0.500000000000     0.750000000000     0.137450000000     0          
O        O      0.542766666667     0.801966666667     0.486450000000     0          
O        O      0.500000000000     0.750000000000     0.458950000000     0          
T        Si     0.573466666667     0.956933333333     0.305400000000     0          
T        Si     0.500000000000     0.687200000000     0.077900000000     0          
T        Si     0.500000000000     0.791466666667     0.146250000000     0          
T        Si     0.500000000000     0.791666666667     0.467000000000     0          
T        Si     0.572733333333     0.666666666667     0.000000000000     0          
O        O      0.435666666667     0.849766666667     0.277100000000     0          
O        O      0.376233333333     0.874000000000     0.315700000000     0          
O        O      0.457166666667     0.865766666667     0.334000000000     0          
O        O      0.437000000000     0.916666666667     0.295250000000     0          
O        O      0.500000000000     0.852733333333     0.064650000000     0          
O        O      0.500000000000     0.814366666667     0.114900000000     0          
O        O      0.457233333333     0.698033333333     0.486450000000     0          
T        Si     0.426533333333     0.876400000000     0.305400000000     0          
T        Si     0.500000000000     0.812800000000     0.077900000000     0          
T        Si     0.500000000000     0.708533333333     0.146250000000     0          
T        Si     0.500000000000     0.708333333333     0.467000000000     0          
T        Si     0.427266666667     0.833333333333     0.000000000000     0          
O        O      0.564333333333     0.683100000000     0.222900000000     0          
O        O      0.623766666667     0.707333333333     0.184300000000     0          
O        O      0.542833333333     0.699100000000     0.166000000000     0          
O        O      0.563000000000     0.750000000000     0.204750000000     0          
O        O      0.500000000000     0.686066666667     0.435350000000     0          
O        O      0.500000000000     0.981033333333     0.385100000000     0          
O        O      0.500000000000     0.916666666667     0.362550000000     0          
O        O      0.542766666667     0.864700000000     0.013550000000     0          
O        O      0.500000000000     0.916666666667     0.041050000000     0          
T        Si     0.573466666667     0.709733333333     0.194600000000     0          
T        Si     0.500000000000     0.979466666667     0.422100000000     0          
T        Si     0.500000000000     0.875200000000     0.353750000000     0          
T        Si     0.500000000000     0.875000000000     0.033000000000     0          
O        O      0.435666666667     0.816900000000     0.222900000000     0          
O        O      0.376233333333     0.792666666667     0.184300000000     0          
O        O      0.457166666667     0.800900000000     0.166000000000     0          
O        O      0.437000000000     0.750000000000     0.204750000000     0          
O        O      0.500000000000     0.813933333333     0.435350000000     0          
O        O      0.500000000000     0.852300000000     0.385100000000     0          
O        O      0.457233333333     0.968633333333     0.013550000000     0          
T        Si     0.426533333333     0.790266666667     0.194600000000     0          
T        Si     0.500000000000     0.853866666667     0.422100000000     0          
T        Si     0.500000000000     0.958133333333     0.353750000000     0          
T        Si     0.500000000000     0.958333333333     0.033000000000     0          
O        O      0.435666666667     0.683100000000     0.222900000000     0          
O        O      0.376233333333     0.707333333333     0.184300000000     0          
O        O      0.457166666667     0.699100000000     0.166000000000     0          
O        O      0.457233333333     0.864700000000     0.013550000000     0          
T        Si     0.426533333333     0.709733333333     0.194600000000     0          
T        Si     0.427266666667     0.666666666667     0.000000000000     0          
O        O      0.564333333333     0.816900000000     0.222900000000     0          
O        O      0.623766666667     0.792666666667     0.184300000000     0          
O        O      0.542833333333     0.800900000000     0.166000000000     0          
O        O      0.542766666667     0.968633333333     0.013550000000     0          
T        Si     0.573466666667     0.790266666667     0.194600000000     0          
T        Si     0.572733333333     0.833333333333     0.000000000000     0          
O        O      0.435666666667     0.983566666667     0.277100000000     0          
O        O      0.376233333333     0.959333333333     0.315700000000     0          
O        O      0.457166666667     0.967566666667     0.334000000000     0          
O        O      0.457233333333     0.801966666667     0.486450000000     0          
T        Si     0.426533333333     0.956933333333     0.305400000000     0          
O        O      0.564333333333     0.849766666667     0.277100000000     0          
O        O      0.623766666667     0.874000000000     0.315700000000     0          
O        O      0.542833333333     0.865766666667     0.334000000000     0          
O        O      0.542766666667     0.698033333333     0.486450000000     0          
T        Si     0.573466666667     0.876400000000     0.305400000000     0          
O        O      0.397666666667     0.816900000000     0.527100000000     0          
O        O      0.457100000000     0.792666666667     0.565700000000     0          
O        O      0.376166666667     0.800900000000     0.584000000000     0          
O        O      0.396333333333     0.750000000000     0.545250000000     0          
O        O      0.333333333333     0.813933333333     0.814650000000     0          
O        O      0.333333333333     0.852300000000     0.864900000000     0          
O        O      0.333333333333     0.916666666667     0.887450000000     0          
O        O      0.376100000000     0.968633333333     0.736450000000     0          
O        O      0.333333333333     0.916666666667     0.708950000000     0          
T        Si     0.406800000000     0.790266666667     0.555400000000     0          
T        Si     0.333333333333     0.853866666667     0.827900000000     0          
T        Si     0.333333333333     0.958133333333     0.896250000000     0          
T        Si     0.333333333333     0.958333333333     0.717000000000     0          
T        Si     0.406066666667     0.833333333333     0.750000000000     0          
O        O      0.602333333333     0.683100000000     0.527100000000     0          
O        O      0.542900000000     0.707333333333     0.565700000000     0          
O        O      0.623833333333     0.699100000000     0.584000000000     0          
O        O      0.603666666667     0.750000000000     0.545250000000     0          
O        O      0.333333333333     0.686066666667     0.814650000000     0          
O        O      0.333333333333     0.981033333333     0.864900000000     0          
O        O      0.623900000000     0.864700000000     0.736450000000     0          
T        Si     0.593200000000     0.709733333333     0.555400000000     0          
T        Si     0.333333333333     0.979466666667     0.827900000000     0          
T        Si     0.333333333333     0.875200000000     0.896250000000     0          
T        Si     0.333333333333     0.875000000000     0.717000000000     0          
T        Si     0.593933333333     0.666666666667     0.750000000000     0          
O        O      0.397666666667     0.849766666667     0.972900000000     0          
O        O      0.457100000000     0.874000000000     0.934300000000     0          
O        O      0.376166666667     0.865766666667     0.916000000000     0          
O        O      0.396333333333     0.916666666667     0.954750000000     0          
O        O      0.333333333333     0.852733333333     0.685350000000     0          
O        O      0.333333333333     0.814366666667     0.635100000000     0          
O        O      0.333333333333     0.750000000000     0.612550000000     0          
O        O      0.376100000000     0.698033333333     0.763550000000     0          
O        O      0.333333333333     0.750000000000     0.791050000000     0          
T        Si     0.406800000000     0.876400000000     0.944600000000     0          
T        Si     0.333333333333     0.812800000000     0.672100000000     0          
T        Si     0.333333333333     0.708533333333     0.603750000000     0          
T        Si     0.333333333333     0.708333333333     0.783000000000     0          
O        O      0.602333333333     0.983566666667     0.972900000000     0          
O        O      0.542900000000     0.959333333333     0.934300000000     0          
O        O      0.623833333333     0.967566666667     0.916000000000     0          
O        O      0.603666666667     0.916666666667     0.954750000000     0          
O        O      0.333333333333     0.980600000000     0.685350000000     0          
O        O      0.333333333333     0.685633333333     0.635100000000     0          
O        O      0.623900000000     0.801966666667     0.763550000000     0          
T        Si     0.593200000000     0.956933333333     0.944600000000     0          
T        Si     0.333333333333     0.687200000000     0.672100000000     0          
T        Si     0.333333333333     0.791466666667     0.603750000000     0          
T        Si     0.333333333333     0.791666666667     0.783000000000     0          
O        O      0.602333333333     0.849766666667     0.972900000000     0          
O        O      0.542900000000     0.874000000000     0.934300000000     0          
O        O      0.623833333333     0.865766666667     0.916000000000     0          
O        O      0.623900000000     0.698033333333     0.763550000000     0          
T        Si     0.593200000000     0.876400000000     0.944600000000     0          
T        Si     0.593933333333     0.833333333333     0.750000000000     0          
O        O      0.397666666667     0.983566666667     0.972900000000     0          
O        O      0.457100000000     0.959333333333     0.934300000000     0          
O        O      0.376166666667     0.967566666667     0.916000000000     0          
O        O      0.376100000000     0.801966666667     0.763550000000     0          
T        Si     0.406800000000     0.956933333333     0.944600000000     0          
T        Si     0.406066666667     0.666666666667     0.750000000000     0          
O        O      0.602333333333     0.816900000000     0.527100000000     0          
O        O      0.542900000000     0.792666666667     0.565700000000     0          
O        O      0.623833333333     0.800900000000     0.584000000000     0          
O        O      0.623900000000     0.968633333333     0.736450000000     0          
T        Si     0.593200000000     0.790266666667     0.555400000000     0          
O        O      0.397666666667     0.683100000000     0.527100000000     0          
O        O      0.457100000000     0.707333333333     0.565700000000     0          
O        O      0.376166666667     0.699100000000     0.584000000000     0          
O        O      0.376100000000     0.864700000000     0.736450000000     0          
T        Si     0.406800000000     0.709733333333     0.555400000000     0          
O        O      0.564333333333     0.983566666667     0.777100000000     0          
O        O      0.623766666667     0.959333333333     0.815700000000     0          
O        O      0.542833333333     0.967566666667     0.834000000000     0          
O        O      0.563000000000     0.916666666667     0.795250000000     0          
O        O      0.500000000000     0.980600000000     0.564650000000     0          
O        O      0.500000000000     0.685633333333     0.614900000000     0          
O        O      0.500000000000     0.750000000000     0.637450000000     0          
O        O      0.542766666667     0.801966666667     0.986450000000     0          
O        O      0.500000000000     0.750000000000     0.958950000000     0          
T        Si     0.573466666667     0.956933333333     0.805400000000     0          
T        Si     0.500000000000     0.687200000000     0.577900000000     0          
T        Si     0.500000000000     0.791466666667     0.646250000000     0          
T        Si     0.500000000000     0.791666666667     0.967000000000     0          
T        Si     0.572733333333     0.666666666667     0.500000000000     0          
O        O      0.435666666667     0.849766666667     0.777100000000     0          
O        O      0.376233333333     0.874000000000     0.815700000000     0          
O        O      0.457166666667     0.865766666667     0.834000000000     0          
O        O      0.437000000000     0.916666666667     0.795250000000     0          
O        O      0.500000000000     0.852733333333     0.564650000000     0          
O        O      0.500000000000     0.814366666667     0.614900000000     0          
O        O      0.457233333333     0.698033333333     0.986450000000     0          
T        Si     0.426533333333     0.876400000000     0.805400000000     0          
T        Si     0.500000000000     0.812800000000     0.577900000000     0          
T        Si     0.500000000000     0.708533333333     0.646250000000     0          
T        Si     0.500000000000     0.708333333333     0.967000000000     0          
T        Si     0.427266666667     0.833333333333     0.500000000000     0          
O        O      0.564333333333     0.683100000000     0.722900000000     0          
O        O      0.623766666667     0.707333333333     0.684300000000     0          
O        O      0.542833333333     0.699100000000     0.666000000000     0          
O        O      0.563000000000     0.750000000000     0.704750000000     0          
O        O      0.500000000000     0.686066666667     0.935350000000     0          
O        O      0.500000000000     0.981033333333     0.885100000000     0          
O        O      0.500000000000     0.916666666667     0.862550000000     0          
O        O      0.542766666667     0.864700000000     0.513550000000     0          
O        O      0.500000000000     0.916666666667     0.541050000000     0          
T        Si     0.573466666667     0.709733333333     0.694600000000     0          
T        Si     0.500000000000     0.979466666667     0.922100000000     0          
T        Si     0.500000000000     0.875200000000     0.853750000000     0          
T        Si     0.500000000000     0.875000000000     0.533000000000     0          
O        O      0.435666666667     0.816900000000     0.722900000000     0          
O        O      0.376233333333     0.792666666667     0.684300000000     0          
O        O      0.457166666667     0.800900000000     0.666000000000     0          
O        O      0.437000000000     0.750000000000     0.704750000000     0          
O        O      0.500000000000     0.813933333333     0.935350000000     0          
O        O      0.500000000000     0.852300000000     0.885100000000     0          
O        O      0.457233333333     0.968633333333     0.513550000000     0          
T        Si     0.426533333333     0.790266666667     0.694600000000     0          
T        Si     0.500000000000     0.853866666667     0.922100000000     0          
T        Si     0.500000000000     0.958133333333     0.853750000000     0          
T        Si     0.500000000000     0.958333333333     0.533000000000     0          
O        O      0.435666666667     0.683100000000     0.722900000000     0          
O        O      0.376233333333     0.707333333333     0.684300000000     0          
O        O      0.457166666667     0.699100000000     0.666000000000     0          
O        O      0.457233333333     0.864700000000     0.513550000000     0          
T        Si     0.426533333333     0.709733333333     0.694600000000     0          
T        Si     0.427266666667     0.666666666667     0.500000000000     0          
O        O      0.564333333333     0.816900000000     0.722900000000     0          
O        O      0.623766666667     0.792666666667     0.684300000000     0          
O        O      0.542833333333     0.800900000000     0.666000000000     0          
O        O      0.542766666667     0.968633333333     0.513550000000     0          
T        Si     0.573466666667     0.790266666667     0.694600000000     0          
T        Si     0.572733333333     0.833333333333     0.500000000000     0          
O        O      0.435666666667     0.983566666667     0.777100000000     0          
O        O      0.376233333333     0.959333333333     0.815700000000     0          
O        O      0.457166666667     0.967566666667     0.834000000000     0          
O        O      0.457233333333     0.801966666667     0.986450000000     0          
T        Si     0.426533333333     0.956933333333     0.805400000000     0          
O        O      0.564333333333     0.849766666667     0.777100000000     0          
O        O      0.623766666667     0.874000000000     0.815700000000     0          
O        O      0.542833333333     0.865766666667     0.834000000000     0          
O        O      0.542766666667     0.698033333333     0.986450000000     0          
T        Si     0.573466666667     0.876400000000     0.805400000000     0          
O        O      0.731000000000     0.150233333333     0.027100000000     0          
O        O      0.790433333333     0.126000000000     0.065700000000     0          
O        O      0.709500000000     0.134233333333     0.084000000000     0          
O        O      0.729666666667     0.083333333333     0.045250000000     0          
O        O      0.666666666667     0.147266666667     0.314650000000     0          
O        O      0.666666666667     0.185633333333     0.364900000000     0          
O        O      0.666666666667     0.250000000000     0.387450000000     0          
O        O      0.709433333333     0.301966666667     0.236450000000     0          
O        O      0.666666666667     0.250000000000     0.208950000000     0          
T        Si     0.740133333333     0.123600000000     0.055400000000     0          
T        Si     0.666666666667     0.187200000000     0.327900000000     0          
T        Si     0.666666666667     0.291466666667     0.396250000000     0          
T        Si     0.666666666667     0.291666666667     0.217000000000     0          
T        Si     0.739400000000     0.166666666667     0.250000000000     0          
O        O      0.935666666667     0.016433333333     0.027100000000     0          
O        O      0.876233333333     0.040666666667     0.065700000000     0          
O        O      0.957166666667     0.032433333333     0.084000000000     0          
O        O      0.937000000000     0.083333333333     0.045250000000     0          
O        O      0.666666666667     0.019400000000     0.314650000000     0          
O        O      0.666666666667     0.314366666667     0.364900000000     0          
O        O      0.957233333333     0.198033333333     0.236450000000     0          
T        Si     0.926533333333     0.043066666667     0.055400000000     0          
T        Si     0.666666666667     0.312800000000     0.327900000000     0          
T        Si     0.666666666667     0.208533333333     0.396250000000     0          
T        Si     0.666666666667     0.208333333333     0.217000000000     0          
T        Si     0.927266666667     0.000000000000     0.250000000000     0          
O        O      0.731000000000     0.183100000000     0.472900000000     0          
O        O      0.790433333333     0.207333333333     0.434300000000     0          
O        O      0.709500000000     0.199100000000     0.416000000000     0          
O        O      0.729666666667     0.250000000000     0.454750000000     0          
O        O      0.666666666667     0.186066666667     0.185350000000     0          
O        O      0.666666666667     0.147700000000     0.135100000000     0          
O        O      0.666666666667     0.083333333333     0.112550000000     0          
O        O      0.709433333333     0.031366666667     0.263550000000     0          
O        O      0.666666666667     0.083333333333     0.291050000000     0          
T        Si     0.740133333333     0.209733333333     0.444600000000     0          
T        Si     0.666666666667     0.146133333333     0.172100000000     0          
T        Si     0.666666666667     0.041866666667     0.103750000000     0          
T        Si     0.666666666667     0.041666666667     0.283000000000     0          
O        O      0.935666666667     0.316900000000     0.472900000000     0          
O        O      0.876233333333     0.292666666667     0.434300000000     0          
O        O      0.957166666667     0.300900000000     0.416000000000     0          
O        O      0.937000000000     0.250000000000     0.454750000000     0          
O        O      0.666666666667     0.313933333333     0.185350000000     0          
O        O      0.666666666667     0.018966666667     0.135100000000     0          
O        O      0.957233333333     0.135300000000     0.263550000000     0          
T        Si     0.926533333333     0.290266666667     0.444600000000     0          
T        Si     0.666666666667     0.020533333333     0.172100000000     0          
T        Si     0.666666666667     0.124800000000     0.103750000000     0          
T        Si     0.666666666667     0.125000000000     0.283000000000     0          
O        O      0.935666666667     0.183100000000     0.472900000000     0          
O        O      0.876233333333     0.207333333333     0.434300000000     0          
O        O      0.957166666667     0.199100000000     0.416000000000     0          
O        O      0.957233333333     0.031366666667     0.263550000000     0          
T        Si     0.926533333333     0.209733333333     0.444600000000     0          
T        Si     0.927266666667     0.166666666667     0.250000000000     0          
O        O      0.731000000000     0.316900000000     0.472900000000     0          
O        O      0.790433333333     0.292666666667     0.434300000000     0          
O        O      0.709500000000     0.300900000000     0.416000000000     0          
O        O      0.709433333333     0.135300000000     0.263550000000     0          
T        Si     0.740133333333     0.290266666667     0.444600000000     0          
T        Si     0.739400000000     0.000000000000     0.250000000000     0          
O        O      0.935666666667     0.150233333333     0.027100000000     0          
O        O      0.876233333333     0.126000000000     0.065700000000     0          
O        O      0.957166666667     0.134233333333     0.084000000000     0          
O        O      0.957233333333     0.301966666667     0.236450000000     0          
T        Si     0.926533333333     0.123600000000     0.055400000000     0          
O        O      0.731000000000     0.016433333333     0.027100000000     0          
O        O      0.790433333333     0.040666666667     0.065700000000     0          
O        O      0.709500000000     0.032433333333     0.084000000000     0          
O        O      0.709433333333     0.198033333333     0.236450000000     0          
T        Si     0.740133333333     0.043066666667     0.055400000000     0          
O        O      0.897666666667     0.316900000000     0.277100000000     0          
O        O      0.957100000000     0.292666666667     0.315700000000     0          
O        O      0.876166666667     0.300900000000     0.334000000000     0          
O        O      0.896333333333     0.250000000000     0.295250000000     0          
O        O      0.833333333333     0.313933333333     0.064650000000     0          
O        O      0.833333333333     0.018966666667     0.114900000000     0          
O        O      0.833333333333     0.083333333333     0.137450000000     0          
O        O      0.876100000000     0.135300000000     0.486450000000     0          
O        O      0.833333333333     0.083333333333     0.458950000000     0          
T        Si     0.906800000000     0.290266666667     0.305400000000     0          
T        Si     0.833333333333     0.020533333333     0.077900000000     0          
T        Si     0.833333333333     0.124800000000     0.146250000000     0          
T        Si     0.833333333333     0.125000000000     0.467000000000     0          
T        Si     0.906066666667     0.000000000000     0.000000000000     0          
O        O      0.769000000000     0.183100000000     0.277100000000     0          
O        O      0.709566666667     0.207333333333     0.315700000000     0          
O        O      0.790500000000     0.199100000000     0.334000000000     0          
O        O      0.770333333333     0.250000000000     0.295250000000     0          
O        O      0.833333333333     0.186066666667     0.064650000000     0          
O        O      0.833333333333     0.147700000000     0.114900000000     0          
O        O      0.790566666667     0.031366666667     0.486450000000     0          
T        Si     0.759866666667     0.209733333333     0.305400000000     0          
T        Si     0.833333333333     0.146133333333     0.077900000000     0          
T        Si     0.833333333333     0.041866666667     0.146250000000     0          
T        Si     0.833333333333     0.041666666667     0.467000000000     0          
T        Si     0.760600000000     0.166666666667     0.000000000000     0          
O        O      0.897666666667     0.016433333333     0.222900000000     0          
O        O      0.957100000000     0.040666666667     0.184300000000     0          
O        O      0.876166666667     0.032433333333     0.166000000000     0          
O        O      0.896333333333     0.083333333333     0.204750000000     0          
O        O      0.833333333333     0.019400000000     0.435350000000     0          
O        O      0.833333333333     0.314366666667     0.385100000000     0          
O        O      0.833333333333     0.250000000000     0.362550000000     0          
O        O      0.876100000000     0.198033333333     0.013550000000     0          
O        O      0.833333333333     0.250000000000     0.041050000000     0          
T        Si     0.906800000000     0.043066666667     0.194600000000     0          
T        Si     0.833333333333     0.312800000000     0.422100000000     0          
T        Si     0.833333333333     0.208533333333     0.353750000000     0          
T        Si     0.833333333333     0.208333333333     0.033000000000     0          
O        O      0.769000000000     0.150233333333     0.222900000000     0          
O        O      0.709566666667     0.126000000000     0.184300000000     0          
O        O      0.790500000000     0.134233333333     0.166000000000     0          
O        O      0.770333333333     0.083333333333     0.204750000000     0          
O        O      0.833333333333     0.147266666667     0.435350000000     0          
O        O      0.833333333333     0.185633333333     0.385100000000     0          
O        O      0.790566666667     0.301966666667     0.013550000000     0          
T        Si     0.759866666667     0.123600000000     0.194600000000     0          
T        Si     0.833333333333     0.187200000000     0.422100000000     0          
T        Si     0.833333333333     0.291466666667     0.353750000000     0          
T        Si     0.833333333333     0.291666666667     0.033000000000     0          
O        O      0.769000000000     0.016433333333     0.222900000000     0          
O        O      0.709566666667     0.040666666667     0.184300000000     0          
O        O      0.790500000000     0.032433333333     0.166000000000     0          
O        O      0.790566666667     0.198033333333     0.013550000000     0          
T        Si     0.759866666667     0.043066666667     0.194600000000     0          
T        Si     0.760600000000     0.000000000000     0.000000000000     0          
O        O      0.897666666667     0.150233333333     0.222900000000     0          
O        O      0.957100000000     0.126000000000     0.184300000000     0          
O        O      0.876166666667     0.134233333333     0.166000000000     0          
O        O      0.876100000000     0.301966666667     0.013550000000     0          
T        Si     0.906800000000     0.123600000000     0.194600000000     0          
T        Si     0.906066666667     0.166666666667     0.000000000000     0          
O        O      0.769000000000     0.316900000000     0.277100000000     0          
O        O      0.709566666667     0.292666666667     0.315700000000     0          
O        O      0.790500000000     0.300900000000     0.334000000000     0          
O        O      0.790566666667     0.135300000000     0.486450000000     0          
T        Si     0.759866666667     0.290266666667     0.305400000000     0          
O        O      0.897666666667     0.183100000000     0.277100000000     0          
O        O      0.957100000000     0.207333333333     0.315700000000     0          
O        O      0.876166666667     0.199100000000     0.334000000000     0          
O        O      0.876100000000     0.031366666667     0.486450000000     0          
T        Si     0.906800000000     0.209733333333     0.305400000000     0          
O        O      0.731000000000     0.150233333333     0.527100000000     0          
O        O      0.790433333333     0.126000000000     0.565700000000     0          
O        O      0.709500000000     0.134233333333     0.584000000000     0          
O        O      0.729666666667     0.083333333333     0.545250000000     0          
O        O      0.666666666667     0.147266666667     0.814650000000     0          
O        O      0.666666666667     0.185633333333     0.864900000000     0          
O        O      0.666666666667     0.250000000000     0.887450000000     0          
O        O      0.709433333333     0.301966666667     0.736450000000     0          
O        O      0.666666666667     0.250000000000     0.708950000000     0          
T        Si     0.740133333333     0.123600000000     0.555400000000     0          
T        Si     0.666666666667     0.187200000000     0.827900000000     0          
T        Si     0.666666666667     0.291466666667     0.896250000000     0          
T        Si     0.666666666667     0.291666666667     0.717000000000     0          
T        Si     0.739400000000     0.166666666667     0.750000000000     0          
O        O      0.935666666667     0.016433333333     0.527100000000     0          
O        O      0.876233333333     0.040666666667     0.565700000000     0          
O        O      0.957166666667     0.032433333333     0.584000000000     0          
O        O      0.937000000000     0.083333333333     0.545250000000     0          
O        O      0.666666666667     0.019400000000     0.814650000000     0          
O        O      0.666666666667     0.314366666667     0.864900000000     0          
O        O      0.957233333333     0.198033333333     0.736450000000     0          
T        Si     0.926533333333     0.043066666667     0.555400000000     0          
T        Si     0.666666666667     0.312800000000     0.827900000000     0          
T        Si     0.666666666667     0.208533333333     0.896250000000     0          
T        Si     0.666666666667     0.208333333333     0.717000000000     0          
T        Si     0.927266666667     0.000000000000     0.750000000000     0          
O        O      0.731000000000     0.183100000000     0.972900000000     0          
O        O      0.790433333333     0.207333333333     0.934300000000     0          
O        O      0.709500000000     0.199100000000     0.916000000000     0          
O        O      0.729666666667     0.250000000000     0.954750000000     0          
O        O      0.666666666667     0.186066666667     0.685350000000     0          
O        O      0.666666666667     0.147700000000     0.635100000000     0          
O        O      0.666666666667     0.083333333333     0.612550000000     0          
O        O      0.709433333333     0.031366666667     0.763550000000     0          
O        O      0.666666666667     0.083333333333     0.791050000000     0          
T        Si     0.740133333333     0.209733333333     0.944600000000     0          
T        Si     0.666666666667     0.146133333333     0.672100000000     0          
T        Si     0.666666666667     0.041866666667     0.603750000000     0          
T        Si     0.666666666667     0.041666666667     0.783000000000     0          
O        O      0.935666666667     0.316900000000     0.972900000000     0          
O        O      0.876233333333     0.292666666667     0.934300000000     0          
O        O      0.957166666667     0.300900000000     0.916000000000     0          
O        O      0.937000000000     0.250000000000     0.954750000000     0          
O        O      0.666666666667     0.313933333333     0.685350000000     0          
O        O      0.666666666667     0.018966666667     0.635100000000     0          
O        O      0.957233333333     0.135300000000     0.763550000000     0          
T        Si     0.926533333333     0.290266666667     0.944600000000     0          
T        Si     0.666666666667     0.020533333333     0.672100000000     0          
T        Si     0.666666666667     0.124800000000     0.603750000000     0          
T        Si     0.666666666667     0.125000000000     0.783000000000     0          
O        O      0.935666666667     0.183100000000     0.972900000000     0          
O        O      0.876233333333     0.207333333333     0.934300000000     0          
O        O      0.957166666667     0.199100000000     0.916000000000     0          
O        O      0.957233333333     0.031366666667     0.763550000000     0          
T        Si     0.926533333333     0.209733333333     0.944600000000     0          
T        Si     0.927266666667     0.166666666667     0.750000000000     0          
O        O      0.731000000000     0.316900000000     0.972900000000     0          
O        O      0.790433333333     0.292666666667     0.934300000000     0          
O        O      0.709500000000     0.300900000000     0.916000000000     0          
O        O      0.709433333333     0.135300000000     0.763550000000     0          
T        Si     0.740133333333     0.290266666667     0.944600000000     0          
T        Si     0.739400000000     0.000000000000     0.750000000000     0          
O        O      0.935666666667     0.150233333333     0.527100000000     0          
O        O      0.876233333333     0.126000000000     0.565700000000     0          
O        O      0.957166666667     0.134233333333     0.584000000000     0          
O        O      0.957233333333     0.301966666667     0.736450000000     0          
T        Si     0.926533333333     0.123600000000     0.555400000000     0          
O        O      0.731000000000     0.016433333333     0.527100000000     0          
O        O      0.790433333333     0.040666666667     0.565700000000     0          
O        O      0.709500000000     0.032433333333     0.584000000000     0          
O        O      0.709433333333     0.198033333333     0.736450000000     0          
T        Si     0.740133333333     0.043066666667     0.555400000000     0          
O        O      0.897666666667     0.316900000000     0.777100000000     0          
O        O      0.957100000000     0.292666666667     0.815700000000     0          
O        O      0.876166666667     0.300900000000     0.834000000000     0          
O        O      0.896333333333     0.250000000000     0.795250000000     0          
O        O      0.833333333333     0.313933333333     0.564650000000     0          
O        O      0.833333333333     0.018966666667     0.614900000000     0          
O        O      0.833333333333     0.083333333333     0.637450000000     0          
O        O      0.876100000000     0.135300000000     0.986450000000     0          
O        O      0.833333333333     0.083333333333     0.958950000000     0          
T        Si     0.906800000000     0.290266666667     0.805400000000     0          
T        Si     0.833333333333     0.020533333333     0.577900000000     0          
T        Si     0.833333333333     0.124800000000     0.646250000000     0          
T        Si     0.833333333333     0.125000000000     0.967000000000     0          
T        Si     0.906066666667     0.000000000000     0.500000000000     0          
O        O      0.769000000000     0.183100000000     0.777100000000     0          
O        O      0.709566666667     0.207333333333     0.815700000000     0          
O        O      0.790500000000     0.199100000000     0.834000000000     0          
O        O      0.770333333333     0.250000000000     0.795250000000     0          
O        O      0.833333333333     0.186066666667     0.564650000000     0          
O        O      0.833333333333     0.147700000000     0.614900000000     0          
O        O      0.790566666667     0.031366666667     0.986450000000     0          
T        Si     0.759866666667     0.209733333333     0.805400000000     0          
T        Si     0.833333333333     0.146133333333     0.577900000000     0          
T        Si     0.833333333333     0.041866666667     0.646250000000     0          
T        Si     0.833333333333     0.041666666667     0.967000000000     0          
T        Si     0.760600000000     0.166666666667     0.500000000000     0          
O        O      0.897666666667     0.016433333333     0.722900000000     0          
O        O      0.957100000000     0.040666666667     0.684300000000     0          
O        O      0.876166666667     0.032433333333     0.666000000000     0          
O        O      0.896333333333     0.083333333333     0.704750000000     0          
O        O      0.833333333333     0.019400000000     0.935350000000     0          
O        O      0.833333333333     0.314366666667     0.885100000000     0          
O        O      0.833333333333     0.250000000000     0.862550000000     0          
O        O      0.876100000000     0.198033333333     0.513550000000     0          
O        O      0.833333333333     0.250000000000     0.541050000000     0          
T        Si     0.906800000000     0.043066666667     0.694600000000     0          
T        Si     0.833333333333     0.312800000000     0.922100000000     0          
T        Si     0.833333333333     0.208533333333     0.853750000000     0          
T        Si     0.833333333333     0.208333333333     0.533000000000     0          
O        O      0.769000000000     0.150233333333     0.722900000000     0          
O        O      0.709566666667     0.126000000000     0.684300000000     0          
O        O      0.790500000000     0.134233333333     0.666000000000     0          
O        O      0.770333333333     0.083333333333     0.704750000000     0          
O        O      0.833333333333     0.147266666667     0.935350000000     0          
O        O      0.833333333333     0.185633333333     0.885100000000     0          
O        O      0.790566666667     0.301966666667     0.513550000000     0          
T        Si     0.759866666667     0.123600000000     0.694600000000     0          
T        Si     0.833333333333     0.187200000000     0.922100000000     0          
T        Si     0.833333333333     0.291466666667     0.853750000000     0          
T        Si     0.833333333333     0.291666666667     0.533000000000     0          
O        O      0.769000000000     0.016433333333     0.722900000000     0          
O        O      0.709566666667     0.040666666667     0.684300000000     0          
O        O      0.790500000000     0.032433333333     0.666000000000     0          
O        O      0.790566666667     0.198033333333     0.513550000000     0          
T        Si     0.759866666667     0.043066666667     0.694600000000     0          
T        Si     0.760600000000     0.000000000000     0.500000000000     0          
O        O      0.897666666667     0.150233333333     0.722900000000     0          
O        O      0.957100000000     0.126000000000     0.684300000000     0          
O        O      0.876166666667     0.134233333333     0.666000000000     0          
O        O      0.876100000000     0.301966666667     0.513550000000     0          
T        Si     0.906800000000     0.123600000000     0.694600000000     0          
T        Si     0.906066666667     0.166666666667     0.500000000000     0          
O        O      0.769000000000     0.316900000000     0.777100000000     0          
O        O      0.709566666667     0.292666666667     0.815700000000     0          
O        O      0.790500000000     0.300900000000     0.834000000000     0          
O        O      0.790566666667     0.135300000000     0.986450000000     0          
T        Si     0.759866666667     0.290266666667     0.805400000000     0          
O        O      0.897666666667     0.183100000000     0.777100000000     0          
O        O      0.957100000000     0.207333333333     0.815700000000     0          
O        O      0.876166666667     0.199100000000     0.834000000000     0          
O        O      0.876100000000     0.031366666667     0.986450000000     0          
T        Si     0.906800000000     0.209733333333     0.805400000000     0          
O        O      0.731000000000     0.483566666667     0.027100000000     0          
O        O      0.790433333333     0.459333333333     0.065700000000     0          
O        O      0.709500000000     0.467566666667     0.084000000000     0          
O        O      0.729666666667     0.416666666667     0.045250000000     0          
O        O      0.666666666667     0.480600000000     0.314650000000     0          
O        O      0.666666666667     0.518966666667     0.364900000000     0          
O        O      0.666666666667     0.583333333333     0.387450000000     0          
O        O      0.709433333333     0.635300000000     0.236450000000     0          
O        O      0.666666666667     0.583333333333     0.208950000000     0          
T        Si     0.740133333333     0.456933333333     0.055400000000     0          
T        Si     0.666666666667     0.520533333333     0.327900000000     0          
T        Si     0.666666666667     0.624800000000     0.396250000000     0          
T        Si     0.666666666667     0.625000000000     0.217000000000     0          
T        Si     0.739400000000     0.500000000000     0.250000000000     0          
O        O      0.935666666667     0.349766666667     0.027100000000     0          
O        O      0.876233333333     0.374000000000     0.065700000000     0          
O        O      0.957166666667     0.365766666667     0.084000000000     0          
O        O      0.937000000000     0.416666666667     0.045250000000     0          
O        O      0.666666666667     0.352733333333     0.314650000000     0          
O        O      0.666666666667     0.647700000000     0.364900000000     0          
O        O      0.957233333333     0.531366666667     0.236450000000     0          
T        Si     0.926533333333     0.376400000000     0.055400000000     0          
T        Si     0.666666666667     0.646133333333     0.327900000000     0          
T        Si     0.666666666667     0.541866666667     0.396250000000     0          
T        Si     0.666666666667     0.541666666667     0.217000000000     0          
T        Si     0.927266666667     0.333333333333     0.250000000000     0          
O        O      0.731000000000     0.516433333333     0.472900000000     0          
O        O      0.790433333333     0.540666666667     0.434300000000     0          
O        O      0.709500000000     0.532433333333     0.416000000000     0          
O        O      0.729666666667     0.583333333333     0.454750000000     0          
O        O      0.666666666667     0.519400000000     0.185350000000     0          
O        O      0.666666666667     0.481033333333     0.135100000000     0          
O        O      0.666666666667     0.416666666667     0.112550000000     0          
O        O      0.709433333333     0.364700000000     0.263550000000     0          
O        O      0.666666666667     0.416666666667     0.291050000000     0          
T        Si     0.740133333333     0.543066666667     0.444600000000     0          
T        Si     0.666666666667     0.479466666667     0.172100000000     0          
T        Si     0.666666666667     0.375200000000     0.103750000000     0          
T        Si     0.666666666667     0.375000000000     0.283000000000     0          
O        O      0.935666666667     0.650233333333     0.472900000000     0          
O        O      0.876233333333     0.626000000000     0.434300000000     0          
O        O      0.957166666667     0.634233333333     0.416000000000     0          
O        O      0.937000000000     0.583333333333     0.454750000000     0          
O        O      0.666666666667     0.647266666667     0.185350000000     0          
O        O      0.666666666667     0.352300000000     0.135100000000     0          
O        O      0.957233333333     0.468633333333     0.263550000000     0          
T        Si     0.926533333333     0.623600000000     0.444600000000     0          
T        Si     0.666666666667     0.353866666667     0.172100000000     0          
T        Si     0.666666666667     0.458133333333     0.103750000000     0          
T        Si     0.666666666667     0.458333333333     0.283000000000     0          
O        O      0.935666666667     0.516433333333     0.472900000000     0          
O        O      0.876233333333     0.540666666667     0.434300000000     0          
O        O      0.957166666667     0.532433333333     0.416000000000     0          
O        O      0.957233333333     0.364700000000     0.263550000000     0          
T        Si     0.926533333333     0.543066666667     0.444600000000     0          
T        Si     0.927266666667     0.500000000000     0.250000000000     0          
O        O      0.731000000000     0.650233333333     0.472900000000     0          
O        O      0.790433333333     0.626000000000     0.434300000000     0          
O        O      0.709500000000     0.634233333333     0.416000000000     0          
O        O      0.709433333333     0.468633333333     0.263550000000     0          
T        Si     0.740133333333     0.623600000000     0.444600000000     0          
T        Si     0.739400000000     0.333333333333     0.250000000000     0          
O        O      0.935666666667     0.483566666667     0.027100000000     0          
O        O      0.876233333333     0.459333333333     0.065700000000     0          
O        O      0.957166666667     0.467566666667     0.084000000000     0          
O        O      0.957233333333     0.635300000000     0.236450000000     0          
T        Si     0.926533333333     0.456933333333     0.055400000000     0          
O        O      0.731000000000     0.349766666667     0.027100000000     0          
O        O      0.790433333333     0.374000000000     0.065700000000     0          
O        O      0.709500000000     0.365766666667     0.084000000000     0          
O        O      0.709433333333     0.531366666667     0.236450000000     0          
T        Si     0.740133333333     0.376400000000     0.055400000000     0          
O        O      0.897666666667     0.650233333333     0.277100000000     0          
O        O      0.957100000000     0.626000000000     0.315700000000     0          
O        O      0.876166666667     0.634233333333     0.334000000000     0          
O        O      0.896333333333     0.583333333333     0.295250000000     0          
O        O      0.833333333333     0.647266666667     0.064650000000     0          
O        O      0.833333333333     0.352300000000     0.114900000000     0          
O        O      0.833333333333     0.416666666667     0.137450000000     0          
O        O      0.876100000000     0.468633333333     0.486450000000     0          
O        O      0.833333333333     0.416666666667     0.458950000000     0          
T        Si     0.906800000000     0.623600000000     0.305400000000     0          
T        Si     0.833333333333     0.353866666667     0.077900000000     0          
T        Si     0.833333333333     0.458133333333     0.146250000000     0          
T        Si     0.833333333333     0.458333333333     0.467000000000     0          
T        Si     0.906066666667     0.333333333333     0.000000000000     0          
O        O      0.769000000000     0.516433333333     0.277100000000     0          
O        O      0.709566666667     0.540666666667     0.315700000000     0          
O        O      0.790500000000     0.532433333333     0.334000000000     0          
O        O      0.770333333333     0.583333333333     0.295250000000     0          
O        O      0.833333333333     0.519400000000     0.064650000000     0          
O        O      0.833333333333     0.481033333333     0.114900000000     0          
O        O      0.790566666667     0.364700000000     0.486450000000     0          
T        Si     0.759866666667     0.543066666667     0.305400000000     0          
T        Si     0.833333333333     0.479466666667     0.077900000000     0          
T        Si     0.833333333333     0.375200000000     0.146250000000     0          
T        Si     0.833333333333     0.375000000000     0.467000000000     0          
T        Si     0.760600000000     0.500000000000     0.000000000000     0          
O        O      0.897666666667     0.349766666667     0.222900000000     0          
O        O      0.957100000000     0.374000000000     0.184300000000     0          
O        O      0.876166666667     0.365766666667     0.166000000000     0          
O        O      0.896333333333     0.416666666667     0.204750000000     0          
O        O      0.833333333333     0.352733333333     0.435350000000     0          
O        O      0.833333333333     0.647700000000     0.385100000000     0          
O        O      0.833333333333     0.583333333333     0.362550000000     0          
O        O      0.876100000000     0.531366666667     0.013550000000     0          
O        O      0.833333333333     0.583333333333     0.041050000000     0          
T        Si     0.906800000000     0.376400000000     0.194600000000     0          
T        Si     0.833333333333     0.646133333333     0.422100000000     0          
T        Si     0.833333333333     0.541866666667     0.353750000000     0          
T        Si     0.833333333333     0.541666666667     0.033000000000     0          
O        O      0.769000000000     0.483566666667     0.222900000000     0          
O        O      0.709566666667     0.459333333333     0.184300000000     0          
O        O      0.790500000000     0.467566666667     0.166000000000     0          
O        O      0.770333333333     0.416666666667     0.204750000000     0          
O        O      0.833333333333     0.480600000000     0.435350000000     0          
O        O      0.833333333333     0.518966666667     0.385100000000     0          
O        O      0.790566666667     0.635300000000     0.013550000000     0          
T        Si     0.759866666667     0.456933333333     0.194600000000     0          
T        Si     0.833333333333     0.520533333333     0.422100000000     0          
T        Si     0.833333333333     0.624800000000     0.353750000000     0          
T        Si     0.833333333333     0.625000000000     0.033000000000     0          
O        O      0.769000000000     0.349766666667     0.222900000000     0          
O        O      0.709566666667     0.374000000000     0.184300000000     0          
O        O      0.790500000000     0.365766666667     0.166000000000     0          
O        O      0.790566666667     0.531366666667     0.013550000000     0          
T        Si     0.759866666667     0.376400000000     0.194600000000     0          
T        Si     0.760600000000     0.333333333333     0.000000000000     0          
O        O      0.897666666667     0.483566666667     0.222900000000     0          
O        O      0.957100000000     0.459333333333     0.184300000000     0          
O        O      0.876166666667     0.467566666667     0.166000000000     0          
O        O      0.876100000000     0.635300000000     0.013550000000     0          
T        Si     0.906800000000     0.456933333333     0.194600000000     0          
T        Si     0.906066666667     0.500000000000     0.000000000000     0          
O        O      0.769000000000     0.650233333333     0.277100000000     0          
O        O      0.709566666667     0.626000000000     0.315700000000     0          
O        O      0.790500000000     0.634233333333     0.334000000000     0          
O        O      0.790566666667     0.468633333333     0.486450000000     0          
T        Si     0.759866666667     0.623600000000     0.305400000000     0          
O        O      0.897666666667     0.516433333333     0.277100000000     0          
O        O      0.957100000000     0.540666666667     0.315700000000     0          
O        O      0.876166666667     0.532433333333     0.334000000000     0          
O        O      0.876100000000     0.364700000000     0.486450000000     0          
T        Si     0.906800000000     0.543066666667     0.305400000000     0          
O        O      0.731000000000     0.483566666667     0.527100000000     0          
O        O      0.790433333333     0.459333333333     0.565700000000     0          
O        O      0.709500000000     0.467566666667     0.584000000000     0          
O        O      0.729666666667     0.416666666667     0.545250000000     0          
O        O      0.666666666667     0.480600000000     0.814650000000     0          
O        O      0.666666666667     0.518966666667     0.864900000000     0          
O        O      0.666666666667     0.583333333333     0.887450000000     0          
O        O      0.709433333333     0.635300000000     0.736450000000     0          
O        O      0.666666666667     0.583333333333     0.708950000000     0          
T        Si     0.740133333333     0.456933333333     0.555400000000     0          
T        Si     0.666666666667     0.520533333333     0.827900000000     0          
T        Si     0.666666666667     0.624800000000     0.896250000000     0          
T        Si     0.666666666667     0.625000000000     0.717000000000     0          
T        Si     0.739400000000     0.500000000000     0.750000000000     0          
O        O      0.935666666667     0.349766666667     0.527100000000     0          
O        O      0.876233333333     0.374000000000     0.565700000000     0          
O        O      0.957166666667     0.365766666667     0.584000000000     0          
O        O      0.937000000000     0.416666666667     0.545250000000     0          
O        O      0.666666666667     0.352733333333     0.814650000000     0          
O        O      0.666666666667     0.647700000000     0.864900000000     0          
O        O      0.957233333333     0.531366666667     0.736450000000     0          
T        Si     0.926533333333     0.376400000000     0.555400000000     0          
T        Si     0.666666666667     0.646133333333     0.827900000000     0          
T        Si     0.666666666667     0.541866666667     0.896250000000     0          
T        Si     0.666666666667     0.541666666667     0.717000000000     0          
T        Si     0.927266666667     0.333333333333     0.750000000000     0          
O        O      0.731000000000     0.516433333333     0.972900000000     0          
O        O      0.790433333333     0.540666666667     0.934300000000     0          
O        O      0.709500000000     0.532433333333     0.916000000000     0          
O        O      0.729666666667     0.583333333333     0.954750000000     0          
O        O      0.666666666667     0.519400000000     0.685350000000     0          
O        O      0.666666666667     0.481033333333     0.635100000000     0          
O        O      0.666666666667     0.416666666667     0.612550000000     0          
O        O      0.709433333333     0.364700000000     0.763550000000     0          
O        O      0.666666666667     0.416666666667     0.791050000000     0          
T        Si     0.740133333333     0.543066666667     0.944600000000     0          
T        Si     0.666666666667     0.479466666667     0.672100000000     0          
T        Si     0.666666666667     0.375200000000     0.603750000000     0          
T        Si     0.666666666667     0.375000000000     0.783000000000     0          
O        O      0.935666666667     0.650233333333     0.972900000000     0          
O        O      0.876233333333     0.626000000000     0.934300000000     0          
O        O      0.957166666667     0.634233333333     0.916000000000     0          
O        O      0.937000000000     0.583333333333     0.954750000000     0          
O        O      0.666666666667     0.647266666667     0.685350000000     0          
O        O      0.666666666667     0.352300000000     0.635100000000     0          
O        O      0.957233333333     0.468633333333     0.763550000000     0          
T        Si     0.926533333333     0.623600000000     0.944600000000     0          
T        Si     0.666666666667     0.353866666667     0.672100000000     0          
T        Si     0.666666666667     0.458133333333     0.603750000000     0          
T        Si     0.666666666667     0.458333333333     0.783000000000     0          
O        O      0.935666666667     0.516433333333     0.972900000000     0          
O        O      0.876233333333     0.540666666667     0.934300000000     0          
O        O      0.957166666667     0.532433333333     0.916000000000     0          
O        O      0.957233333333     0.364700000000     0.763550000000     0          
T        Si     0.926533333333     0.543066666667     0.944600000000     0          
T        Si     0.927266666667     0.500000000000     0.750000000000     0          
O        O      0.731000000000     0.650233333333     0.972900000000     0          
O        O      0.790433333333     0.626000000000     0.934300000000     0          
O        O      0.709500000000     0.634233333333     0.916000000000     0          
O        O      0.709433333333     0.468633333333     0.763550000000     0          
T        Si     0.740133333333     0.623600000000     0.944600000000     0          
T        Si     0.739400000000     0.333333333333     0.750000000000     0          
O        O      0.935666666667     0.483566666667     0.527100000000     0          
O        O      0.876233333333     0.459333333333     0.565700000000     0          
O        O      0.957166666667     0.467566666667     0.584000000000     0          
O        O      0.957233333333     0.635300000000     0.736450000000     0          
T        Si     0.926533333333     0.456933333333     0.555400000000     0          
O        O      0.731000000000     0.349766666667     0.527100000000     0          
O        O      0.790433333333     0.374000000000     0.565700000000     0          
O        O      0.709500000000     0.365766666667     0.584000000000     0          
O        O      0.709433333333     0.531366666667     0.736450000000     0          
T        Si     0.740133333333     0.376400000000     0.555400000000     0          
O        O      0.897666666667     0.650233333333     0.777100000000     0          
O        O      0.957100000000     0.626000000000     0.815700000000     0          
O        O      0.876166666667     0.634233333333     0.834000000000     0          
O        O      0.896333333333     0.583333333333     0.795250000000     0          
O        O      0.833333333333     0.647266666667     0.564650000000     0          
O        O      0.833333333333     0.352300000000     0.614900000000     0          
O        O      0.833333333333     0.416666666667     0.637450000000     0          
O        O      0.876100000000     0.468633333333     0.986450000000     0          
O        O      0.833333333333     0.416666666667     0.958950000000     0          
T        Si     0.906800000000     0.623600000000     0.805400000000     0          
T        Si     0.833333333333     0.353866666667     0.577900000000     0          
T        Si     0.833333333333     0.458133333333     0.646250000000     0          
T        Si     0.833333333333     0.458333333333     0.967000000000     0          
T        Si     0.906066666667     0.333333333333     0.500000000000     0          
O        O      0.769000000000     0.516433333333     0.777100000000     0          
O        O      0.709566666667     0.540666666667     0.815700000000     0          
O        O      0.790500000000     0.532433333333     0.834000000000     0          
O        O      0.770333333333     0.583333333333     0.795250000000     0          
O        O      0.833333333333     0.519400000000     0.564650000000     0          
O        O      0.833333333333     0.481033333333     0.614900000000     0          
O        O      0.790566666667     0.364700000000     0.986450000000     0          
T        Si     0.759866666667     0.543066666667     0.805400000000     0          
T        Si     0.833333333333     0.479466666667     0.577900000000     0          
T        Si     0.833333333333     0.375200000000     0.646250000000     0          
T        Si     0.833333333333     0.375000000000     0.967000000000     0          
T        Si     0.760600000000     0.500000000000     0.500000000000     0          
O        O      0.897666666667     0.349766666667     0.722900000000     0          
O        O      0.957100000000     0.374000000000     0.684300000000     0          
O        O      0.876166666667     0.365766666667     0.666000000000     0          
O        O      0.896333333333     0.416666666667     0.704750000000     0          
O        O      0.833333333333     0.352733333333     0.935350000000     0          
O        O      0.833333333333     0.647700000000     0.885100000000     0          
O        O      0.833333333333     0.583333333333     0.862550000000     0          
O        O      0.876100000000     0.531366666667     0.513550000000     0          
O        O      0.833333333333     0.583333333333     0.541050000000     0          
T        Si     0.906800000000     0.376400000000     0.694600000000     0          
T        Si     0.833333333333     0.646133333333     0.922100000000     0          
T        Si     0.833333333333     0.541866666667     0.853750000000     0          
T        Si     0.833333333333     0.541666666667     0.533000000000     0          
O        O      0.769000000000     0.483566666667     0.722900000000     0          
O        O      0.709566666667     0.459333333333     0.684300000000     0          
O        O      0.790500000000     0.467566666667     0.666000000000     0          
O        O      0.770333333333     0.416666666667     0.704750000000     0          
O        O      0.833333333333     0.480600000000     0.935350000000     0          
O        O      0.833333333333     0.518966666667     0.885100000000     0          
O        O      0.790566666667     0.635300000000     0.513550000000     0          
T        Si     0.759866666667     0.456933333333     0.694600000000     0          
T        Si     0.833333333333     0.520533333333     0.922100000000     0          
T        Si     0.833333333333     0.624800000000     0.853750000000     0          
T        Si     0.833333333333     0.625000000000     0.533000000000     0          
O        O      0.769000000000     0.349766666667     0.722900000000     0          
O        O      0.709566666667     0.374000000000     0.684300000000     0          
O        O      0.790500000000     0.365766666667     0.666000000000     0          
O        O      0.790566666667     0.531366666667     0.513550000000     0          
T        Si     0.759866666667     0.376400000000     0.694600000000     0          
T        Si     0.760600000000     0.333333333333     0.500000000000     0          
O        O      0.897666666667     0.483566666667     0.722900000000     0          
O        O      0.957100000000     0.459333333333     0.684300000000     0          
O        O      0.876166666667     0.467566666667     0.666000000000     0          
O        O      0.876100000000     0.635300000000     0.513550000000     0          
T        Si     0.906800000000     0.456933333333     0.694600000000     0          
T        Si     0.906066666667     0.500000000000     0.500000000000     0          
O        O      0.769000000000     0.650233333333     0.777100000000     0          
O        O      0.709566666667     0.626000000000     0.815700000000     0          
O        O      0.790500000000     0.634233333333     0.834000000000     0          
O        O      0.790566666667     0.468633333333     0.986450000000     0          
T        Si     0.759866666667     0.623600000000     0.805400000000     0          
O        O      0.897666666667     0.516433333333     0.777100000000     0          
O        O      0.957100000000     0.540666666667     0.815700000000     0          
O        O      0.876166666667     0.532433333333     0.834000000000     0          
O        O      0.876100000000     0.364700000000     0.986450000000     0          
T        Si     0.906800000000     0.543066666667     0.805400000000     0          
O        O      0.731000000000     0.816900000000     0.027100000000     0          
O        O      0.790433333333     0.792666666667     0.065700000000     0          
O        O      0.709500000000     0.800900000000     0.084000000000     0          
O        O      0.729666666667     0.750000000000     0.045250000000     0          
O        O      0.666666666667     0.813933333333     0.314650000000     0          
O        O      0.666666666667     0.852300000000     0.364900000000     0          
O        O      0.666666666667     0.916666666667     0.387450000000     0          
O        O      0.709433333333     0.968633333333     0.236450000000     0          
O        O      0.666666666667     0.916666666667     0.208950000000     0          
T        Si     0.740133333333     0.790266666667     0.055400000000     0          
T        Si     0.666666666667     0.853866666667     0.327900000000     0          
T        Si     0.666666666667     0.958133333333     0.396250000000     0          
T        Si     0.666666666667     0.958333333333     0.217000000000     0          
T        Si     0.739400000000     0.833333333333     0.250000000000     0          
O        O      0.935666666667     0.683100000000     0.027100000000     0          
O        O      0.876233333333     0.707333333333     0.065700000000     0          
O        O      0.957166666667     0.699100000000     0.084000000000     0          
O        O      0.937000000000     0.750000000000     0.045250000000     0          
O        O      0.666666666667     0.686066666667     0.314650000000     0          
O        O      0.666666666667     0.981033333333     0.364900000000     0          
O        O      0.957233333333     0.864700000000     0.236450000000     0          
T        Si     0.926533333333     0.709733333333     0.055400000000     0          
T        Si     0.666666666667     0.979466666667     0.327900000000     0          
T        Si     0.666666666667     0.875200000000     0.396250000000     0          
T        Si     0.666666666667     0.875000000000     0.217000000000     0          
T        Si     0.927266666667     0.666666666667     0.250000000000     0          
O        O      0.731000000000     0.849766666667     0.472900000000     0          
O        O      0.790433333333     0.874000000000     0.434300000000     0          
O        O      0.709500000000     0.865766666667     0.416000000000     0          
O        O      0.729666666667     0.916666666667     0.454750000000     0          
O        O      0.666666666667     0.852733333333     0.185350000000     0          
O        O      0.666666666667     0.814366666667     0.135100000000     0          
O        O      0.666666666667     0.750000000000     0.112550000000     0          
O        O      0.709433333333     0.698033333333     0.263550000000     0          
O        O      0.666666666667     0.750000000000     0.291050000000     0          
T        Si     0.740133333333     0.876400000000     0.444600000000     0          
T        Si     0.666666666667     0.812800000000     0.172100000000     0          
T        Si     0.666666666667     0.708533333333     0.103750000000     0          
T        Si     0.666666666667     0.708333333333     0.283000000000     0          
O        O      0.935666666667     0.983566666667     0.472900000000     0          
O        O      0.876233333333     0.959333333333     0.434300000000     0          
O        O      0.957166666667     0.967566666667     0.416000000000     0          
O        O      0.937000000000     0.916666666667     0.454750000000     0          
O        O      0.666666666667     0.980600000000     0.185350000000     0          
O        O      0.666666666667     0.685633333333     0.135100000000     0          
O        O      0.957233333333     0.801966666667     0.263550000000     0          
T        Si     0.926533333333     0.956933333333     0.444600000000     0          
T        Si     0.666666666667     0.687200000000     0.172100000000     0          
T        Si     0.666666666667     0.791466666667     0.103750000000     0          
T        Si     0.666666666667     0.791666666667     0.283000000000     0          
O        O      0.935666666667     0.849766666667     0.472900000000     0          
O        O      0.876233333333     0.874000000000     0.434300000000     0          
O        O      0.957166666667     0.865766666667     0.416000000000     0          
O        O      0.957233333333     0.698033333333     0.263550000000     0          
T        Si     0.926533333333     0.876400000000     0.444600000000     0          
T        Si     0.927266666667     0.833333333333     0.250000000000     0          
O        O      0.731000000000     0.983566666667     0.472900000000     0          
O        O      0.790433333333     0.959333333333     0.434300000000     0          
O        O      0.709500000000     0.967566666667     0.416000000000     0          
O        O      0.709433333333     0.801966666667     0.263550000000     0          
T        Si     0.740133333333     0.956933333333     0.444600000000     0          
T        Si     0.739400000000     0.666666666667     0.250000000000     0          
O        O      0.935666666667     0.816900000000     0.027100000000     0          
O        O      0.876233333333     0.792666666667     0.065700000000     0          
O        O      0.957166666667     0.800900000000     0.084000000000     0          
O        O      0.957233333333     0.968633333333     0.236450000000     0          
T        Si     0.926533333333     0.790266666667     0.055400000000     0          
O        O      0.731000000000     0.683100000000     0.027100000000     0          
O        O      0.790433333333     0.707333333333     0.065700000000     0          
O        O      0.709500000000     0.699100000000     0.084000000000     0          
O        O      0.709433333333     0.864700000000     0.236450000000     0          
T        Si     0.740133333333     0.709733333333     0.055400000000     0          
O        O      0.897666666667     0.983566666667     0.277100000000     0          
O        O      0.957100000000     0.959333333333     0.315700000000     0          
O        O      0.876166666667     0.967566666667     0.334000000000     0          
O        O      0.896333333333     0.916666666667     0.295250000000     0          
O        O      0.833333333333     0.980600000000     0.064650000000     0          
O        O      0.833333333333     0.685633333333     0.114900000000     0          
O        O      0.833333333333     0.750000000000     0.137450000000     0          
O        O      0.876100000000     0.801966666667     0.486450000000     0          
O        O      0.833333333333     0.750000000000     0.458950000000     0          
T        Si     0.906800000000     0.956933333333     0.305400000000     0          
T        Si     0.833333333333     0.687200000000     0.077900000000     0          
T        Si     0.833333333333     0.791466666667     0.146250000000     0          
T        Si     0.833333333333     0.791666666667     0.467000000000     0          
T        Si     0.906066666667     0.666666666667     0.000000000000     0          
O        O      0.769000000000     0.849766666667     0.277100000000     0          
O        O      0.709566666667     0.874000000000     0.315700000000     0          
O        O      0.790500000000     0.865766666667     0.334000000000     0          
O        O      0.770333333333     0.916666666667     0.295250000000     0          
O        O      0.833333333333     0.852733333333     0.064650000000     0          
O        O      0.833333333333     0.814366666667     0.114900000000     0          
O        O      0.790566666667     0.698033333333     0.486450000000     0          
T        Si     0.759866666667     0.876400000000     0.305400000000     0          
T        Si     0.833333333333     0.812800000000     0.077900000000     0          
T        Si     0.833333333333     0.708533333333     0.146250000000     0          
T        Si     0.833333333333     0.708333333333     0.467000000000     0          
T        Si     0.760600000000     0.833333333333     0.000000000000     0          
O        O      0.897666666667     0.683100000000     0.222900000000     0          
O        O      0.957100000000     0.707333333333     0.184300000000     0          
O        O      0.876166666667     0.699100000000     0.166000000000     0          
O        O      0.896333333333     0.750000000000     0.204750000000     0          
O        O      0.833333333333     0.686066666667     0.435350000000     0          
O        O      0.833333333333     0.981033333333     0.385100000000     0          
O        O      0.833333333333     0.916666666667     0.362550000000     0          
O        O      0.876100000000     0.864700000000     0.013550000000     0          
O        O      0.833333333333     0.916666666667     0.041050000000     0          
T        Si     0.906800000000     0.709733333333     0.194600000000     0          
T        Si     0.833333333333     0.979466666667     0.422100000000     0          
T        Si     0.833333333333     0.875200000000     0.353750000000     0          
T        Si     0.833333333333     0.875000000000     0.033000000000     0          
O        O      0.769000000000     0.816900000000     0.222900000000     0          
O        O      0.709566666667     0.792666666667     0.184300000000     0          
O        O      0.790500000000     0.800900000000     0.166000000000     0          
O        O      0.770333333333     0.750000000000     0.204750000000     0          
O        O      0.833333333333     0.813933333333     0.435350000000     0          
O        O      0.833333333333     0.852300000000     0.385100000000     0          
O        O      0.790566666667     0.968633333333     0.013550000000     0          
T        Si     0.759866666667     0.790266666667     0.194600000000     0          
T        Si     0.833333333333     0.853866666667     0.422100000000     0          
T        Si     0.833333333333     0.958133333333     0.353750000000     0          
T        Si     0.833333333333     0.958333333333     0.033000000000     0          
O        O      0.769000000000     0.683100000000     0.222900000000     0          
O        O      0.709566666667     0.707333333333     0.184300000000     0          
O        O      0.790500000000     0.699100000000     0.166000000000     0          
O        O      0.790566666667     0.864700000000     0.013550000000     0          
T        Si     0.759866666667     0.709733333333     0.194600000000     0          
T        Si     0.760600000000     0.666666666667     0.000000000000     0          
O        O      0.897666666667     0.816900000000     0.222900000000     0          
O        O      0.957100000000     0.792666666667     0.184300000000     0          
O        O      0.876166666667     0.800900000000     0.166000000000     0          
O        O      0.876100000000     0.968633333333     0.013550000000     0          
T        Si     0.906800000000     0.790266666667     0.194600000000     0          
T        Si     0.906066666667     0.833333333333     0.000000000000     0          
O        O      0.769000000000     0.983566666667     0.277100000000     0          
O        O      0.709566666667     0.959333333333     0.315700000000     0          
O        O      0.790500000000     0.967566666667     0.334000000000     0          
O        O      0.790566666667     0.801966666667     0.486450000000     0          
T        Si     0.759866666667     0.956933333333     0.305400000000     0          
O        O      0.897666666667     0.849766666667     0.277100000000     0          
O        O      0.957100000000     0.874000000000     0.315700000000     0          
O        O      0.876166666667     0.865766666667     0.334000000000     0          
O        O      0.876100000000     0.698033333333     0.486450000000     0          
T        Si     0.906800000000     0.876400000000     0.305400000000     0          
O        O      0.731000000000     0.816900000000     0.527100000000     0          
O        O      0.790433333333     0.792666666667     0.565700000000     0          
O        O      0.709500000000     0.800900000000     0.584000000000     0          
O        O      0.729666666667     0.750000000000     0.545250000000     0          
O        O      0.666666666667     0.813933333333     0.814650000000     0          
O        O      0.666666666667     0.852300000000     0.864900000000     0          
O        O      0.666666666667     0.916666666667     0.887450000000     0          
O        O      0.709433333333     0.968633333333     0.736450000000     0          
O        O      0.666666666667     0.916666666667     0.708950000000     0          
T        Si     0.740133333333     0.790266666667     0.555400000000     0          
T        Si     0.666666666667     0.853866666667     0.827900000000     0          
T        Si     0.666666666667     0.958133333333     0.896250000000     0          
T        Si     0.666666666667     0.958333333333     0.717000000000     0          
T        Si     0.739400000000     0.833333333333     0.750000000000     0          
O        O      0.935666666667     0.683100000000     0.527100000000     0          
O        O      0.876233333333     0.707333333333     0.565700000000     0          
O        O      0.957166666667     0.699100000000     0.584000000000     0          
O        O      0.937000000000     0.750000000000     0.545250000000     0          
O        O      0.666666666667     0.686066666667     0.814650000000     0          
O        O      0.666666666667     0.981033333333     0.864900000000     0          
O        O      0.957233333333     0.864700000000     0.736450000000     0          
T        Si     0.926533333333     0.709733333333     0.555400000000     0          
T        Si     0.666666666667     0.979466666667     0.827900000000     0          
T        Si     0.666666666667     0.875200000000     0.896250000000     0          
T        Si     0.666666666667     0.875000000000     0.717000000000     0          
T        Si     0.927266666667     0.666666666667     0.750000000000     0          
O        O      0.731000000000     0.849766666667     0.972900000000     0          
O        O      0.790433333333     0.874000000000     0.934300000000     0          
O        O      0.709500000000     0.865766666667     0.916000000000     0          
O        O      0.729666666667     0.916666666667     0.954750000000     0          
O        O      0.666666666667     0.852733333333     0.685350000000     0          
O        O      0.666666666667     0.814366666667     0.635100000000     0          
O        O      0.666666666667     0.750000000000     0.612550000000     0          
O        O      0.709433333333     0.698033333333     0.763550000000     0          
O        O      0.666666666667     0.750000000000     0.791050000000     0          
T        Si     0.740133333333     0.876400000000     0.944600000000     0          
T        Si     0.666666666667     0.812800000000     0.672100000000     0          
T        Si     0.666666666667     0.708533333333     0.603750000000     0          
T        Si     0.666666666667     0.708333333333     0.783000000000     0          
O        O      0.935666666667     0.983566666667     0.972900000000     0          
O        O      0.876233333333     0.959333333333     0.934300000000     0          
O        O      0.957166666667     0.967566666667     0.916000000000     0          
O        O      0.937000000000     0.916666666667     0.954750000000     0          
O        O      0.666666666667     0.980600000000     0.685350000000     0          
O        O      0.666666666667     0.685633333333     0.635100000000     0          
O        O      0.957233333333     0.801966666667     0.763550000000     0          
T        Si     0.926533333333     0.956933333333     0.944600000000     0          
T        Si     0.666666666667     0.687200000000     0.672100000000     0          
T        Si     0.666666666667     0.791466666667     0.603750000000     0          
T        Si     0.666666666667     0.791666666667     0.783000000000     0          
O        O      0.935666666667     0.849766666667     0.972900000000     0          
O        O      0.876233333333     0.874000000000     0.934300000000     0          
O        O      0.957166666667     0.865766666667     0.916000000000     0          
O        O      0.957233333333     0.698033333333     0.763550000000     0          
T        Si     0.926533333333     0.876400000000     0.944600000000     0          
T        Si     0.927266666667     0.833333333333     0.750000000000     0          
O        O      0.731000000000     0.983566666667     0.972900000000     0          
O        O      0.790433333333     0.959333333333     0.934300000000     0          
O        O      0.709500000000     0.967566666667     0.916000000000     0          
O        O      0.709433333333     0.801966666667     0.763550000000     0          
T        Si     0.740133333333     0.956933333333     0.944600000000     0          
T        Si     0.739400000000     0.666666666667     0.750000000000     0          
O        O      0.935666666667     0.816900000000     0.527100000000     0          
O        O      0.876233333333     0.792666666667     0.565700000000     0          
O        O      0.957166666667     0.800900000000     0.584000000000     0          
O        O      0.957233333333     0.968633333333     0.736450000000     0          
T        Si     0.926533333333     0.790266666667     0.555400000000     0          
O        O      0.731000000000     0.683100000000     0.527100000000     0          
O        O      0.790433333333     0.707333333333     0.565700000000     0          
O        O      0.709500000000     0.699100000000     0.584000000000     0          
O        O      0.709433333333     0.864700000000     0.736450000000     0          
T        Si     0.740133333333     0.709733333333     0.555400000000     0          
O        O      0.897666666667     0.983566666667     0.777100000000     0          
O        O      0.957100000000     0.959333333333     0.815700000000     0          
O        O      0.876166666667     0.967566666667     0.834000000000     0          
O        O      0.896333333333     0.916666666667     0.795250000000     0          
O        O      0.833333333333     0.980600000000     0.564650000000     0          
O        O      0.833333333333     0.685633333333     0.614900000000     0          
O        O      0.833333333333     0.750000000000     0.637450000000     0          
O        O      0.876100000000     0.801966666667     0.986450000000     0          
O        O      0.833333333333     0.750000000000     0.958950000000     0          
T        Si     0.906800000000     0.956933333333     0.805400000000     0          
T        Si     0.833333333333     0.687200000000     0.577900000000     0          
T        Si     0.833333333333     0.791466666667     0.646250000000     0          
T        Si     0.833333333333     0.791666666667     0.967000000000     0          
T        Si     0.906066666667     0.666666666667     0.500000000000     0          
O        O      0.769000000000     0.849766666667     0.777100000000     0          
O        O      0.709566666667     0.874000000000     0.815700000000     0          
O        O      0.790500000000     0.865766666667     0.834000000000     0          
O        O      0.770333333333     0.916666666667     0.795250000000     0          
O        O      0.833333333333     0.852733333333     0.564650000000     0          
O        O      0.833333333333     0.814366666667     0.614900000000     0          
O        O      0.790566666667     0.698033333333     0.986450000000     0          
T        Si     0.759866666667     0.876400000000     0.805400000000     0          
T        Si     0.833333333333     0.812800000000     0.577900000000     0          
T        Si     0.833333333333     0.708533333333     0.646250000000     0          
T        Si     0.833333333333     0.708333333333     0.967000000000     0          
T        Si     0.760600000000     0.833333333333     0.500000000000     0          
O        O      0.897666666667     0.683100000000     0.722900000000     0          
O        O      0.957100000000     0.707333333333     0.684300000000     0          
O        O      0.876166666667     0.699100000000     0.666000000000     0          
O        O      0.896333333333     0.750000000000     0.704750000000     0          
O        O      0.833333333333     0.686066666667     0.935350000000     0          
O        O      0.833333333333     0.981033333333     0.885100000000     0          
O        O      0.833333333333     0.916666666667     0.862550000000     0          
O        O      0.876100000000     0.864700000000     0.513550000000     0          
O        O      0.833333333333     0.916666666667     0.541050000000     0          
T        Si     0.906800000000     0.709733333333     0.694600000000     0          
T        Si     0.833333333333     0.979466666667     0.922100000000     0          
T        Si     0.833333333333     0.875200000000     0.853750000000     0          
T        Si     0.833333333333     0.875000000000     0.533000000000     0          
O        O      0.769000000000     0.816900000000     0.722900000000     0          
O        O      0.709566666667     0.792666666667     0.684300000000     0          
O        O      0.790500000000     0.800900000000     0.666000000000     0          
O        O      0.770333333333     0.750000000000     0.704750000000     0          
O        O      0.833333333333     0.813933333333     0.935350000000     0          
O        O      0.833333333333     0.852300000000     0.885100000000     0          
O        O      0.790566666667     0.968633333333     0.513550000000     0          
T        Si     0.759866666667     0.790266666667     0.694600000000     0          
T        Si     0.833333333333     0.853866666667     0.922100000000     0          
T        Si     0.833333333333     0.958133333333     0.853750000000     0          
T        Si     0.833333333333     0.958333333333     0.533000000000     0          
O        O      0.769000000000     0.683100000000     0.722900000000     0          
O        O      0.709566666667     0.707333333333     0.684300000000     0          
O        O      0.790500000000     0.699100000000     0.666000000000     0          
O        O      0.790566666667     0.864700000000     0.513550000000     0          
T        Si     0.759866666667     0.709733333333     0.694600000000     0          
T        Si     0.760600000000     0.666666666667     0.500000000000     0          
O        O      0.897666666667     0.816900000000     0.722900000000     0          
O        O      0.957100000000     0.792666666667     0.684300000000     0          
O        O      0.876166666667     0.800900000000     0.666000000000     0          
O        O      0.876100000000     0.968633333333     0.513550000000     0          
T        Si     0.906800000000     0.790266666667     0.694600000000     0          
T        Si     0.906066666667     0.833333333333     0.500000000000     0          
O        O      0.769000000000     0.983566666667     0.777100000000     0          
O        O      0.709566666667     0.959333333333     0.815700000000     0          
O        O      0.790500000000     0.967566666667     0.834000000000     0          
O        O      0.790566666667     0.801966666667     0.986450000000     0          
T        Si     0.759866666667     0.956933333333     0.805400000000     0          
O        O      0.897666666667     0.849766666667     0.777100000000     0          
O        O      0.957100000000     0.874000000000     0.815700000000     0          
O        O      0.876166666667     0.865766666667     0.834000000000     0          
O        O      0.876100000000     0.698033333333     0.986450000000     0          
T        Si     0.906800000000     0.876400000000     0.805400000000     0          


