data_zeolite

_audit_creation_method RASPA-1.0
_audit_creation_date 2021-6-6
_audit_author_name ''

_cell_length_a    7.503
_cell_length_b    12.773
_cell_length_c    13.706
_cell_angle_alpha 90
_cell_angle_beta  90
_cell_angle_gamma 90
_cell_volume      31524.6

_symmetry_cell_setting          orthorhombic
_symmetry_space_group_name_Hall 'P 1'
_symmetry_space_group_name_H-M  'P 1'
_symmetry_Int_Tables_number     1

_symmetry_equiv_pos_as_xyz 'x,y,z'

loop_
_atom_site_label
_atom_site_type_symbol
_atom_site_fract_x
_atom_site_fract_y
_atom_site_fract_z
_atom_site_charge
T        Si     0.011700000000     0.209866666667     0.334700000000     0          
T        Si     0.164100000000     0.186833333333     0.313300000000     0          
T        Si     0.081975000000     0.210033333333     0.253750000000     0          
T        Si     0.113300000000     0.123466666667     0.084700000000     0          
T        Si     0.210900000000     0.146500000000     0.063300000000     0          
T        Si     0.043025000000     0.123300000000     0.003750000000     0          
T        Si     0.136700000000     0.290133333333     0.415300000000     0          
T        Si     0.039100000000     0.313166666667     0.436700000000     0          
T        Si     0.206975000000     0.289966666667     0.496250000000     0          
T        Si     0.238300000000     0.043200000000     0.165300000000     0          
T        Si     0.085900000000     0.020166666667     0.186700000000     0          
T        Si     0.168025000000     0.043366666667     0.246250000000     0          
T        Si     0.238300000000     0.123466666667     0.165300000000     0          
T        Si     0.085900000000     0.146500000000     0.186700000000     0          
T        Si     0.168025000000     0.123300000000     0.246250000000     0          
T        Si     0.136700000000     0.209866666667     0.415300000000     0          
T        Si     0.039100000000     0.186833333333     0.436700000000     0          
T        Si     0.206975000000     0.210033333333     0.496250000000     0          
T        Si     0.113300000000     0.043200000000     0.084700000000     0          
T        Si     0.210900000000     0.020166666667     0.063300000000     0          
T        Si     0.043025000000     0.043366666667     0.003750000000     0          
T        Si     0.011700000000     0.290133333333     0.334700000000     0          
T        Si     0.164100000000     0.313166666667     0.313300000000     0          
T        Si     0.081975000000     0.289966666667     0.253750000000     0          
T        Si     0.011700000000     0.209866666667     0.834700000000     0          
T        Si     0.164100000000     0.186833333333     0.813300000000     0          
T        Si     0.081975000000     0.210033333333     0.753750000000     0          
T        Si     0.113300000000     0.123466666667     0.584700000000     0          
T        Si     0.210900000000     0.146500000000     0.563300000000     0          
T        Si     0.043025000000     0.123300000000     0.503750000000     0          
T        Si     0.136700000000     0.290133333333     0.915300000000     0          
T        Si     0.039100000000     0.313166666667     0.936700000000     0          
T        Si     0.206975000000     0.289966666667     0.996250000000     0          
T        Si     0.238300000000     0.043200000000     0.665300000000     0          
T        Si     0.085900000000     0.020166666667     0.686700000000     0          
T        Si     0.168025000000     0.043366666667     0.746250000000     0          
T        Si     0.238300000000     0.123466666667     0.665300000000     0          
T        Si     0.085900000000     0.146500000000     0.686700000000     0          
T        Si     0.168025000000     0.123300000000     0.746250000000     0          
T        Si     0.136700000000     0.209866666667     0.915300000000     0          
T        Si     0.039100000000     0.186833333333     0.936700000000     0          
T        Si     0.206975000000     0.210033333333     0.996250000000     0          
T        Si     0.113300000000     0.043200000000     0.584700000000     0          
T        Si     0.210900000000     0.020166666667     0.563300000000     0          
T        Si     0.043025000000     0.043366666667     0.503750000000     0          
T        Si     0.011700000000     0.290133333333     0.834700000000     0          
T        Si     0.164100000000     0.313166666667     0.813300000000     0          
T        Si     0.081975000000     0.289966666667     0.753750000000     0          
T        Si     0.011700000000     0.543200000000     0.334700000000     0          
T        Si     0.164100000000     0.520166666667     0.313300000000     0          
T        Si     0.081975000000     0.543366666667     0.253750000000     0          
T        Si     0.113300000000     0.456800000000     0.084700000000     0          
T        Si     0.210900000000     0.479833333333     0.063300000000     0          
T        Si     0.043025000000     0.456633333333     0.003750000000     0          
T        Si     0.136700000000     0.623466666667     0.415300000000     0          
T        Si     0.039100000000     0.646500000000     0.436700000000     0          
T        Si     0.206975000000     0.623300000000     0.496250000000     0          
T        Si     0.238300000000     0.376533333333     0.165300000000     0          
T        Si     0.085900000000     0.353500000000     0.186700000000     0          
T        Si     0.168025000000     0.376700000000     0.246250000000     0          
T        Si     0.238300000000     0.456800000000     0.165300000000     0          
T        Si     0.085900000000     0.479833333333     0.186700000000     0          
T        Si     0.168025000000     0.456633333333     0.246250000000     0          
T        Si     0.136700000000     0.543200000000     0.415300000000     0          
T        Si     0.039100000000     0.520166666667     0.436700000000     0          
T        Si     0.206975000000     0.543366666667     0.496250000000     0          
T        Si     0.113300000000     0.376533333333     0.084700000000     0          
T        Si     0.210900000000     0.353500000000     0.063300000000     0          
T        Si     0.043025000000     0.376700000000     0.003750000000     0          
T        Si     0.011700000000     0.623466666667     0.334700000000     0          
T        Si     0.164100000000     0.646500000000     0.313300000000     0          
T        Si     0.081975000000     0.623300000000     0.253750000000     0          
T        Si     0.011700000000     0.543200000000     0.834700000000     0          
T        Si     0.164100000000     0.520166666667     0.813300000000     0          
T        Si     0.081975000000     0.543366666667     0.753750000000     0          
T        Si     0.113300000000     0.456800000000     0.584700000000     0          
T        Si     0.210900000000     0.479833333333     0.563300000000     0          
T        Si     0.043025000000     0.456633333333     0.503750000000     0          
T        Si     0.136700000000     0.623466666667     0.915300000000     0          
T        Si     0.039100000000     0.646500000000     0.936700000000     0          
T        Si     0.206975000000     0.623300000000     0.996250000000     0          
T        Si     0.238300000000     0.376533333333     0.665300000000     0          
T        Si     0.085900000000     0.353500000000     0.686700000000     0          
T        Si     0.168025000000     0.376700000000     0.746250000000     0          
T        Si     0.238300000000     0.456800000000     0.665300000000     0          
T        Si     0.085900000000     0.479833333333     0.686700000000     0          
T        Si     0.168025000000     0.456633333333     0.746250000000     0          
T        Si     0.136700000000     0.543200000000     0.915300000000     0          
T        Si     0.039100000000     0.520166666667     0.936700000000     0          
T        Si     0.206975000000     0.543366666667     0.996250000000     0          
T        Si     0.113300000000     0.376533333333     0.584700000000     0          
T        Si     0.210900000000     0.353500000000     0.563300000000     0          
T        Si     0.043025000000     0.376700000000     0.503750000000     0          
T        Si     0.011700000000     0.623466666667     0.834700000000     0          
T        Si     0.164100000000     0.646500000000     0.813300000000     0          
T        Si     0.081975000000     0.623300000000     0.753750000000     0          
T        Si     0.011700000000     0.876533333333     0.334700000000     0          
T        Si     0.164100000000     0.853500000000     0.313300000000     0          
T        Si     0.081975000000     0.876700000000     0.253750000000     0          
T        Si     0.113300000000     0.790133333333     0.084700000000     0          
T        Si     0.210900000000     0.813166666667     0.063300000000     0          
T        Si     0.043025000000     0.789966666667     0.003750000000     0          
T        Si     0.136700000000     0.956800000000     0.415300000000     0          
T        Si     0.039100000000     0.979833333333     0.436700000000     0          
T        Si     0.206975000000     0.956633333333     0.496250000000     0          
T        Si     0.238300000000     0.709866666667     0.165300000000     0          
T        Si     0.085900000000     0.686833333333     0.186700000000     0          
T        Si     0.168025000000     0.710033333333     0.246250000000     0          
T        Si     0.238300000000     0.790133333333     0.165300000000     0          
T        Si     0.085900000000     0.813166666667     0.186700000000     0          
T        Si     0.168025000000     0.789966666667     0.246250000000     0          
T        Si     0.136700000000     0.876533333333     0.415300000000     0          
T        Si     0.039100000000     0.853500000000     0.436700000000     0          
T        Si     0.206975000000     0.876700000000     0.496250000000     0          
T        Si     0.113300000000     0.709866666667     0.084700000000     0          
T        Si     0.210900000000     0.686833333333     0.063300000000     0          
T        Si     0.043025000000     0.710033333333     0.003750000000     0          
T        Si     0.011700000000     0.956800000000     0.334700000000     0          
T        Si     0.164100000000     0.979833333333     0.313300000000     0          
T        Si     0.081975000000     0.956633333333     0.253750000000     0          
T        Si     0.011700000000     0.876533333333     0.834700000000     0          
T        Si     0.164100000000     0.853500000000     0.813300000000     0          
T        Si     0.081975000000     0.876700000000     0.753750000000     0          
T        Si     0.113300000000     0.790133333333     0.584700000000     0          
T        Si     0.210900000000     0.813166666667     0.563300000000     0          
T        Si     0.043025000000     0.789966666667     0.503750000000     0          
T        Si     0.136700000000     0.956800000000     0.915300000000     0          
T        Si     0.039100000000     0.979833333333     0.936700000000     0          
T        Si     0.206975000000     0.956633333333     0.996250000000     0          
T        Si     0.238300000000     0.709866666667     0.665300000000     0          
T        Si     0.085900000000     0.686833333333     0.686700000000     0          
T        Si     0.168025000000     0.710033333333     0.746250000000     0          
T        Si     0.238300000000     0.790133333333     0.665300000000     0          
T        Si     0.085900000000     0.813166666667     0.686700000000     0          
T        Si     0.168025000000     0.789966666667     0.746250000000     0          
T        Si     0.136700000000     0.876533333333     0.915300000000     0          
T        Si     0.039100000000     0.853500000000     0.936700000000     0          
T        Si     0.206975000000     0.876700000000     0.996250000000     0          
T        Si     0.113300000000     0.709866666667     0.584700000000     0          
T        Si     0.210900000000     0.686833333333     0.563300000000     0          
T        Si     0.043025000000     0.710033333333     0.503750000000     0          
T        Si     0.011700000000     0.956800000000     0.834700000000     0          
T        Si     0.164100000000     0.979833333333     0.813300000000     0          
T        Si     0.081975000000     0.956633333333     0.753750000000     0          
T        Si     0.261700000000     0.209866666667     0.334700000000     0          
T        Si     0.414100000000     0.186833333333     0.313300000000     0          
T        Si     0.331975000000     0.210033333333     0.253750000000     0          
T        Si     0.363300000000     0.123466666667     0.084700000000     0          
T        Si     0.460900000000     0.146500000000     0.063300000000     0          
T        Si     0.293025000000     0.123300000000     0.003750000000     0          
T        Si     0.386700000000     0.290133333333     0.415300000000     0          
T        Si     0.289100000000     0.313166666667     0.436700000000     0          
T        Si     0.456975000000     0.289966666667     0.496250000000     0          
T        Si     0.488300000000     0.043200000000     0.165300000000     0          
T        Si     0.335900000000     0.020166666667     0.186700000000     0          
T        Si     0.418025000000     0.043366666667     0.246250000000     0          
T        Si     0.488300000000     0.123466666667     0.165300000000     0          
T        Si     0.335900000000     0.146500000000     0.186700000000     0          
T        Si     0.418025000000     0.123300000000     0.246250000000     0          
T        Si     0.386700000000     0.209866666667     0.415300000000     0          
T        Si     0.289100000000     0.186833333333     0.436700000000     0          
T        Si     0.456975000000     0.210033333333     0.496250000000     0          
T        Si     0.363300000000     0.043200000000     0.084700000000     0          
T        Si     0.460900000000     0.020166666667     0.063300000000     0          
T        Si     0.293025000000     0.043366666667     0.003750000000     0          
T        Si     0.261700000000     0.290133333333     0.334700000000     0          
T        Si     0.414100000000     0.313166666667     0.313300000000     0          
T        Si     0.331975000000     0.289966666667     0.253750000000     0          
T        Si     0.261700000000     0.209866666667     0.834700000000     0          
T        Si     0.414100000000     0.186833333333     0.813300000000     0          
T        Si     0.331975000000     0.210033333333     0.753750000000     0          
T        Si     0.363300000000     0.123466666667     0.584700000000     0          
T        Si     0.460900000000     0.146500000000     0.563300000000     0          
T        Si     0.293025000000     0.123300000000     0.503750000000     0          
T        Si     0.386700000000     0.290133333333     0.915300000000     0          
T        Si     0.289100000000     0.313166666667     0.936700000000     0          
T        Si     0.456975000000     0.289966666667     0.996250000000     0          
T        Si     0.488300000000     0.043200000000     0.665300000000     0          
T        Si     0.335900000000     0.020166666667     0.686700000000     0          
T        Si     0.418025000000     0.043366666667     0.746250000000     0          
T        Si     0.488300000000     0.123466666667     0.665300000000     0          
T        Si     0.335900000000     0.146500000000     0.686700000000     0          
T        Si     0.418025000000     0.123300000000     0.746250000000     0          
T        Si     0.386700000000     0.209866666667     0.915300000000     0          
T        Si     0.289100000000     0.186833333333     0.936700000000     0          
T        Si     0.456975000000     0.210033333333     0.996250000000     0          
T        Si     0.363300000000     0.043200000000     0.584700000000     0          
T        Si     0.460900000000     0.020166666667     0.563300000000     0          
T        Si     0.293025000000     0.043366666667     0.503750000000     0          
T        Si     0.261700000000     0.290133333333     0.834700000000     0          
T        Si     0.414100000000     0.313166666667     0.813300000000     0          
T        Si     0.331975000000     0.289966666667     0.753750000000     0          
T        Si     0.261700000000     0.543200000000     0.334700000000     0          
T        Si     0.414100000000     0.520166666667     0.313300000000     0          
T        Si     0.331975000000     0.543366666667     0.253750000000     0          
T        Si     0.363300000000     0.456800000000     0.084700000000     0          
T        Si     0.460900000000     0.479833333333     0.063300000000     0          
T        Si     0.293025000000     0.456633333333     0.003750000000     0          
T        Si     0.386700000000     0.623466666667     0.415300000000     0          
T        Si     0.289100000000     0.646500000000     0.436700000000     0          
T        Si     0.456975000000     0.623300000000     0.496250000000     0          
T        Si     0.488300000000     0.376533333333     0.165300000000     0          
T        Si     0.335900000000     0.353500000000     0.186700000000     0          
T        Si     0.418025000000     0.376700000000     0.246250000000     0          
T        Si     0.488300000000     0.456800000000     0.165300000000     0          
T        Si     0.335900000000     0.479833333333     0.186700000000     0          
T        Si     0.418025000000     0.456633333333     0.246250000000     0          
T        Si     0.386700000000     0.543200000000     0.415300000000     0          
T        Si     0.289100000000     0.520166666667     0.436700000000     0          
T        Si     0.456975000000     0.543366666667     0.496250000000     0          
T        Si     0.363300000000     0.376533333333     0.084700000000     0          
T        Si     0.460900000000     0.353500000000     0.063300000000     0          
T        Si     0.293025000000     0.376700000000     0.003750000000     0          
T        Si     0.261700000000     0.623466666667     0.334700000000     0          
T        Si     0.414100000000     0.646500000000     0.313300000000     0          
T        Si     0.331975000000     0.623300000000     0.253750000000     0          
T        Si     0.261700000000     0.543200000000     0.834700000000     0          
T        Si     0.414100000000     0.520166666667     0.813300000000     0          
T        Si     0.331975000000     0.543366666667     0.753750000000     0          
T        Si     0.363300000000     0.456800000000     0.584700000000     0          
T        Si     0.460900000000     0.479833333333     0.563300000000     0          
T        Si     0.293025000000     0.456633333333     0.503750000000     0          
T        Si     0.386700000000     0.623466666667     0.915300000000     0          
T        Si     0.289100000000     0.646500000000     0.936700000000     0          
T        Si     0.456975000000     0.623300000000     0.996250000000     0          
T        Si     0.488300000000     0.376533333333     0.665300000000     0          
T        Si     0.335900000000     0.353500000000     0.686700000000     0          
T        Si     0.418025000000     0.376700000000     0.746250000000     0          
T        Si     0.488300000000     0.456800000000     0.665300000000     0          
T        Si     0.335900000000     0.479833333333     0.686700000000     0          
T        Si     0.418025000000     0.456633333333     0.746250000000     0          
T        Si     0.386700000000     0.543200000000     0.915300000000     0          
T        Si     0.289100000000     0.520166666667     0.936700000000     0          
T        Si     0.456975000000     0.543366666667     0.996250000000     0          
T        Si     0.363300000000     0.376533333333     0.584700000000     0          
T        Si     0.460900000000     0.353500000000     0.563300000000     0          
T        Si     0.293025000000     0.376700000000     0.503750000000     0          
T        Si     0.261700000000     0.623466666667     0.834700000000     0          
T        Si     0.414100000000     0.646500000000     0.813300000000     0          
T        Si     0.331975000000     0.623300000000     0.753750000000     0          
T        Si     0.261700000000     0.876533333333     0.334700000000     0          
T        Si     0.414100000000     0.853500000000     0.313300000000     0          
T        Si     0.331975000000     0.876700000000     0.253750000000     0          
T        Si     0.363300000000     0.790133333333     0.084700000000     0          
T        Si     0.460900000000     0.813166666667     0.063300000000     0          
T        Si     0.293025000000     0.789966666667     0.003750000000     0          
T        Si     0.386700000000     0.956800000000     0.415300000000     0          
T        Si     0.289100000000     0.979833333333     0.436700000000     0          
T        Si     0.456975000000     0.956633333333     0.496250000000     0          
T        Si     0.488300000000     0.709866666667     0.165300000000     0          
T        Si     0.335900000000     0.686833333333     0.186700000000     0          
T        Si     0.418025000000     0.710033333333     0.246250000000     0          
T        Si     0.488300000000     0.790133333333     0.165300000000     0          
T        Si     0.335900000000     0.813166666667     0.186700000000     0          
T        Si     0.418025000000     0.789966666667     0.246250000000     0          
T        Si     0.386700000000     0.876533333333     0.415300000000     0          
T        Si     0.289100000000     0.853500000000     0.436700000000     0          
T        Si     0.456975000000     0.876700000000     0.496250000000     0          
T        Si     0.363300000000     0.709866666667     0.084700000000     0          
T        Si     0.460900000000     0.686833333333     0.063300000000     0          
T        Si     0.293025000000     0.710033333333     0.003750000000     0          
T        Si     0.261700000000     0.956800000000     0.334700000000     0          
T        Si     0.414100000000     0.979833333333     0.313300000000     0          
T        Si     0.331975000000     0.956633333333     0.253750000000     0          
T        Si     0.261700000000     0.876533333333     0.834700000000     0          
T        Si     0.414100000000     0.853500000000     0.813300000000     0          
T        Si     0.331975000000     0.876700000000     0.753750000000     0          
T        Si     0.363300000000     0.790133333333     0.584700000000     0          
T        Si     0.460900000000     0.813166666667     0.563300000000     0          
T        Si     0.293025000000     0.789966666667     0.503750000000     0          
T        Si     0.386700000000     0.956800000000     0.915300000000     0          
T        Si     0.289100000000     0.979833333333     0.936700000000     0          
T        Si     0.456975000000     0.956633333333     0.996250000000     0          
T        Si     0.488300000000     0.709866666667     0.665300000000     0          
T        Si     0.335900000000     0.686833333333     0.686700000000     0          
T        Si     0.418025000000     0.710033333333     0.746250000000     0          
T        Si     0.488300000000     0.790133333333     0.665300000000     0          
T        Si     0.335900000000     0.813166666667     0.686700000000     0          
T        Si     0.418025000000     0.789966666667     0.746250000000     0          
T        Si     0.386700000000     0.876533333333     0.915300000000     0          
T        Si     0.289100000000     0.853500000000     0.936700000000     0          
T        Si     0.456975000000     0.876700000000     0.996250000000     0          
T        Si     0.363300000000     0.709866666667     0.584700000000     0          
T        Si     0.460900000000     0.686833333333     0.563300000000     0          
T        Si     0.293025000000     0.710033333333     0.503750000000     0          
T        Si     0.261700000000     0.956800000000     0.834700000000     0          
T        Si     0.414100000000     0.979833333333     0.813300000000     0          
T        Si     0.331975000000     0.956633333333     0.753750000000     0          
T        Si     0.511700000000     0.209866666667     0.334700000000     0          
T        Si     0.664100000000     0.186833333333     0.313300000000     0          
T        Si     0.581975000000     0.210033333333     0.253750000000     0          
T        Si     0.613300000000     0.123466666667     0.084700000000     0          
T        Si     0.710900000000     0.146500000000     0.063300000000     0          
T        Si     0.543025000000     0.123300000000     0.003750000000     0          
T        Si     0.636700000000     0.290133333333     0.415300000000     0          
T        Si     0.539100000000     0.313166666667     0.436700000000     0          
T        Si     0.706975000000     0.289966666667     0.496250000000     0          
T        Si     0.738300000000     0.043200000000     0.165300000000     0          
T        Si     0.585900000000     0.020166666667     0.186700000000     0          
T        Si     0.668025000000     0.043366666667     0.246250000000     0          
T        Si     0.738300000000     0.123466666667     0.165300000000     0          
T        Si     0.585900000000     0.146500000000     0.186700000000     0          
T        Si     0.668025000000     0.123300000000     0.246250000000     0          
T        Si     0.636700000000     0.209866666667     0.415300000000     0          
T        Si     0.539100000000     0.186833333333     0.436700000000     0          
T        Si     0.706975000000     0.210033333333     0.496250000000     0          
T        Si     0.613300000000     0.043200000000     0.084700000000     0          
T        Si     0.710900000000     0.020166666667     0.063300000000     0          
T        Si     0.543025000000     0.043366666667     0.003750000000     0          
T        Si     0.511700000000     0.290133333333     0.334700000000     0          
T        Si     0.664100000000     0.313166666667     0.313300000000     0          
T        Si     0.581975000000     0.289966666667     0.253750000000     0          
T        Si     0.511700000000     0.209866666667     0.834700000000     0          
T        Si     0.664100000000     0.186833333333     0.813300000000     0          
T        Si     0.581975000000     0.210033333333     0.753750000000     0          
T        Si     0.613300000000     0.123466666667     0.584700000000     0          
T        Si     0.710900000000     0.146500000000     0.563300000000     0          
T        Si     0.543025000000     0.123300000000     0.503750000000     0          
T        Si     0.636700000000     0.290133333333     0.915300000000     0          
T        Si     0.539100000000     0.313166666667     0.936700000000     0          
T        Si     0.706975000000     0.289966666667     0.996250000000     0          
T        Si     0.738300000000     0.043200000000     0.665300000000     0          
T        Si     0.585900000000     0.020166666667     0.686700000000     0          
T        Si     0.668025000000     0.043366666667     0.746250000000     0          
T        Si     0.738300000000     0.123466666667     0.665300000000     0          
T        Si     0.585900000000     0.146500000000     0.686700000000     0          
T        Si     0.668025000000     0.123300000000     0.746250000000     0          
T        Si     0.636700000000     0.209866666667     0.915300000000     0          
T        Si     0.539100000000     0.186833333333     0.936700000000     0          
T        Si     0.706975000000     0.210033333333     0.996250000000     0          
T        Si     0.613300000000     0.043200000000     0.584700000000     0          
T        Si     0.710900000000     0.020166666667     0.563300000000     0          
T        Si     0.543025000000     0.043366666667     0.503750000000     0          
T        Si     0.511700000000     0.290133333333     0.834700000000     0          
T        Si     0.664100000000     0.313166666667     0.813300000000     0          
T        Si     0.581975000000     0.289966666667     0.753750000000     0          
T        Si     0.511700000000     0.543200000000     0.334700000000     0          
T        Si     0.664100000000     0.520166666667     0.313300000000     0          
T        Si     0.581975000000     0.543366666667     0.253750000000     0          
T        Si     0.613300000000     0.456800000000     0.084700000000     0          
T        Si     0.710900000000     0.479833333333     0.063300000000     0          
T        Si     0.543025000000     0.456633333333     0.003750000000     0          
T        Si     0.636700000000     0.623466666667     0.415300000000     0          
T        Si     0.539100000000     0.646500000000     0.436700000000     0          
T        Si     0.706975000000     0.623300000000     0.496250000000     0          
T        Si     0.738300000000     0.376533333333     0.165300000000     0          
T        Si     0.585900000000     0.353500000000     0.186700000000     0          
T        Si     0.668025000000     0.376700000000     0.246250000000     0          
T        Si     0.738300000000     0.456800000000     0.165300000000     0          
T        Si     0.585900000000     0.479833333333     0.186700000000     0          
T        Si     0.668025000000     0.456633333333     0.246250000000     0          
T        Si     0.636700000000     0.543200000000     0.415300000000     0          
T        Si     0.539100000000     0.520166666667     0.436700000000     0          
T        Si     0.706975000000     0.543366666667     0.496250000000     0          
T        Si     0.613300000000     0.376533333333     0.084700000000     0          
T        Si     0.710900000000     0.353500000000     0.063300000000     0          
T        Si     0.543025000000     0.376700000000     0.003750000000     0          
T        Si     0.511700000000     0.623466666667     0.334700000000     0          
T        Si     0.664100000000     0.646500000000     0.313300000000     0          
T        Si     0.581975000000     0.623300000000     0.253750000000     0          
T        Si     0.511700000000     0.543200000000     0.834700000000     0          
T        Si     0.664100000000     0.520166666667     0.813300000000     0          
T        Si     0.581975000000     0.543366666667     0.753750000000     0          
T        Si     0.613300000000     0.456800000000     0.584700000000     0          
T        Si     0.710900000000     0.479833333333     0.563300000000     0          
T        Si     0.543025000000     0.456633333333     0.503750000000     0          
T        Si     0.636700000000     0.623466666667     0.915300000000     0          
T        Si     0.539100000000     0.646500000000     0.936700000000     0          
T        Si     0.706975000000     0.623300000000     0.996250000000     0          
T        Si     0.738300000000     0.376533333333     0.665300000000     0          
T        Si     0.585900000000     0.353500000000     0.686700000000     0          
T        Si     0.668025000000     0.376700000000     0.746250000000     0          
T        Si     0.738300000000     0.456800000000     0.665300000000     0          
T        Si     0.585900000000     0.479833333333     0.686700000000     0          
T        Si     0.668025000000     0.456633333333     0.746250000000     0          
T        Si     0.636700000000     0.543200000000     0.915300000000     0          
T        Si     0.539100000000     0.520166666667     0.936700000000     0          
T        Si     0.706975000000     0.543366666667     0.996250000000     0          
T        Si     0.613300000000     0.376533333333     0.584700000000     0          
T        Si     0.710900000000     0.353500000000     0.563300000000     0          
T        Si     0.543025000000     0.376700000000     0.503750000000     0          
T        Si     0.511700000000     0.623466666667     0.834700000000     0          
T        Si     0.664100000000     0.646500000000     0.813300000000     0          
T        Si     0.581975000000     0.623300000000     0.753750000000     0          
T        Si     0.511700000000     0.876533333333     0.334700000000     0          
T        Si     0.664100000000     0.853500000000     0.313300000000     0          
T        Si     0.581975000000     0.876700000000     0.253750000000     0          
T        Si     0.613300000000     0.790133333333     0.084700000000     0          
T        Si     0.710900000000     0.813166666667     0.063300000000     0          
T        Si     0.543025000000     0.789966666667     0.003750000000     0          
T        Si     0.636700000000     0.956800000000     0.415300000000     0          
T        Si     0.539100000000     0.979833333333     0.436700000000     0          
T        Si     0.706975000000     0.956633333333     0.496250000000     0          
T        Si     0.738300000000     0.709866666667     0.165300000000     0          
T        Si     0.585900000000     0.686833333333     0.186700000000     0          
T        Si     0.668025000000     0.710033333333     0.246250000000     0          
T        Si     0.738300000000     0.790133333333     0.165300000000     0          
T        Si     0.585900000000     0.813166666667     0.186700000000     0          
T        Si     0.668025000000     0.789966666667     0.246250000000     0          
T        Si     0.636700000000     0.876533333333     0.415300000000     0          
T        Si     0.539100000000     0.853500000000     0.436700000000     0          
T        Si     0.706975000000     0.876700000000     0.496250000000     0          
T        Si     0.613300000000     0.709866666667     0.084700000000     0          
T        Si     0.710900000000     0.686833333333     0.063300000000     0          
T        Si     0.543025000000     0.710033333333     0.003750000000     0          
T        Si     0.511700000000     0.956800000000     0.334700000000     0          
T        Si     0.664100000000     0.979833333333     0.313300000000     0          
T        Si     0.581975000000     0.956633333333     0.253750000000     0          
T        Si     0.511700000000     0.876533333333     0.834700000000     0          
T        Si     0.664100000000     0.853500000000     0.813300000000     0          
T        Si     0.581975000000     0.876700000000     0.753750000000     0          
T        Si     0.613300000000     0.790133333333     0.584700000000     0          
T        Si     0.710900000000     0.813166666667     0.563300000000     0          
T        Si     0.543025000000     0.789966666667     0.503750000000     0          
T        Si     0.636700000000     0.956800000000     0.915300000000     0          
T        Si     0.539100000000     0.979833333333     0.936700000000     0          
T        Si     0.706975000000     0.956633333333     0.996250000000     0          
T        Si     0.738300000000     0.709866666667     0.665300000000     0          
T        Si     0.585900000000     0.686833333333     0.686700000000     0          
T        Si     0.668025000000     0.710033333333     0.746250000000     0          
T        Si     0.738300000000     0.790133333333     0.665300000000     0          
T        Si     0.585900000000     0.813166666667     0.686700000000     0          
T        Si     0.668025000000     0.789966666667     0.746250000000     0          
T        Si     0.636700000000     0.876533333333     0.915300000000     0          
T        Si     0.539100000000     0.853500000000     0.936700000000     0          
T        Si     0.706975000000     0.876700000000     0.996250000000     0          
T        Si     0.613300000000     0.709866666667     0.584700000000     0          
T        Si     0.710900000000     0.686833333333     0.563300000000     0          
T        Si     0.543025000000     0.710033333333     0.503750000000     0          
T        Si     0.511700000000     0.956800000000     0.834700000000     0          
T        Si     0.664100000000     0.979833333333     0.813300000000     0          
T        Si     0.581975000000     0.956633333333     0.753750000000     0          
T        Si     0.761700000000     0.209866666667     0.334700000000     0          
T        Si     0.914100000000     0.186833333333     0.313300000000     0          
T        Si     0.831975000000     0.210033333333     0.253750000000     0          
T        Si     0.863300000000     0.123466666667     0.084700000000     0          
T        Si     0.960900000000     0.146500000000     0.063300000000     0          
T        Si     0.793025000000     0.123300000000     0.003750000000     0          
T        Si     0.886700000000     0.290133333333     0.415300000000     0          
T        Si     0.789100000000     0.313166666667     0.436700000000     0          
T        Si     0.956975000000     0.289966666667     0.496250000000     0          
T        Si     0.988300000000     0.043200000000     0.165300000000     0          
T        Si     0.835900000000     0.020166666667     0.186700000000     0          
T        Si     0.918025000000     0.043366666667     0.246250000000     0          
T        Si     0.988300000000     0.123466666667     0.165300000000     0          
T        Si     0.835900000000     0.146500000000     0.186700000000     0          
T        Si     0.918025000000     0.123300000000     0.246250000000     0          
T        Si     0.886700000000     0.209866666667     0.415300000000     0          
T        Si     0.789100000000     0.186833333333     0.436700000000     0          
T        Si     0.956975000000     0.210033333333     0.496250000000     0          
T        Si     0.863300000000     0.043200000000     0.084700000000     0          
T        Si     0.960900000000     0.020166666667     0.063300000000     0          
T        Si     0.793025000000     0.043366666667     0.003750000000     0          
T        Si     0.761700000000     0.290133333333     0.334700000000     0          
T        Si     0.914100000000     0.313166666667     0.313300000000     0          
T        Si     0.831975000000     0.289966666667     0.253750000000     0          
T        Si     0.761700000000     0.209866666667     0.834700000000     0          
T        Si     0.914100000000     0.186833333333     0.813300000000     0          
T        Si     0.831975000000     0.210033333333     0.753750000000     0          
T        Si     0.863300000000     0.123466666667     0.584700000000     0          
T        Si     0.960900000000     0.146500000000     0.563300000000     0          
T        Si     0.793025000000     0.123300000000     0.503750000000     0          
T        Si     0.886700000000     0.290133333333     0.915300000000     0          
T        Si     0.789100000000     0.313166666667     0.936700000000     0          
T        Si     0.956975000000     0.289966666667     0.996250000000     0          
T        Si     0.988300000000     0.043200000000     0.665300000000     0          
T        Si     0.835900000000     0.020166666667     0.686700000000     0          
T        Si     0.918025000000     0.043366666667     0.746250000000     0          
T        Si     0.988300000000     0.123466666667     0.665300000000     0          
T        Si     0.835900000000     0.146500000000     0.686700000000     0          
T        Si     0.918025000000     0.123300000000     0.746250000000     0          
T        Si     0.886700000000     0.209866666667     0.915300000000     0          
T        Si     0.789100000000     0.186833333333     0.936700000000     0          
T        Si     0.956975000000     0.210033333333     0.996250000000     0          
T        Si     0.863300000000     0.043200000000     0.584700000000     0          
T        Si     0.960900000000     0.020166666667     0.563300000000     0          
T        Si     0.793025000000     0.043366666667     0.503750000000     0          
T        Si     0.761700000000     0.290133333333     0.834700000000     0          
T        Si     0.914100000000     0.313166666667     0.813300000000     0          
T        Si     0.831975000000     0.289966666667     0.753750000000     0          
T        Si     0.761700000000     0.543200000000     0.334700000000     0          
T        Si     0.914100000000     0.520166666667     0.313300000000     0          
T        Si     0.831975000000     0.543366666667     0.253750000000     0          
T        Si     0.863300000000     0.456800000000     0.084700000000     0          
T        Si     0.960900000000     0.479833333333     0.063300000000     0          
T        Si     0.793025000000     0.456633333333     0.003750000000     0          
T        Si     0.886700000000     0.623466666667     0.415300000000     0          
T        Si     0.789100000000     0.646500000000     0.436700000000     0          
T        Si     0.956975000000     0.623300000000     0.496250000000     0          
T        Si     0.988300000000     0.376533333333     0.165300000000     0          
T        Si     0.835900000000     0.353500000000     0.186700000000     0          
T        Si     0.918025000000     0.376700000000     0.246250000000     0          
T        Si     0.988300000000     0.456800000000     0.165300000000     0          
T        Si     0.835900000000     0.479833333333     0.186700000000     0          
T        Si     0.918025000000     0.456633333333     0.246250000000     0          
T        Si     0.886700000000     0.543200000000     0.415300000000     0          
T        Si     0.789100000000     0.520166666667     0.436700000000     0          
T        Si     0.956975000000     0.543366666667     0.496250000000     0          
T        Si     0.863300000000     0.376533333333     0.084700000000     0          
T        Si     0.960900000000     0.353500000000     0.063300000000     0          
T        Si     0.793025000000     0.376700000000     0.003750000000     0          
T        Si     0.761700000000     0.623466666667     0.334700000000     0          
T        Si     0.914100000000     0.646500000000     0.313300000000     0          
T        Si     0.831975000000     0.623300000000     0.253750000000     0          
T        Si     0.761700000000     0.543200000000     0.834700000000     0          
T        Si     0.914100000000     0.520166666667     0.813300000000     0          
T        Si     0.831975000000     0.543366666667     0.753750000000     0          
T        Si     0.863300000000     0.456800000000     0.584700000000     0          
T        Si     0.960900000000     0.479833333333     0.563300000000     0          
T        Si     0.793025000000     0.456633333333     0.503750000000     0          
T        Si     0.886700000000     0.623466666667     0.915300000000     0          
T        Si     0.789100000000     0.646500000000     0.936700000000     0          
T        Si     0.956975000000     0.623300000000     0.996250000000     0          
T        Si     0.988300000000     0.376533333333     0.665300000000     0          
T        Si     0.835900000000     0.353500000000     0.686700000000     0          
T        Si     0.918025000000     0.376700000000     0.746250000000     0          
T        Si     0.988300000000     0.456800000000     0.665300000000     0          
T        Si     0.835900000000     0.479833333333     0.686700000000     0          
T        Si     0.918025000000     0.456633333333     0.746250000000     0          
T        Si     0.886700000000     0.543200000000     0.915300000000     0          
T        Si     0.789100000000     0.520166666667     0.936700000000     0          
T        Si     0.956975000000     0.543366666667     0.996250000000     0          
T        Si     0.863300000000     0.376533333333     0.584700000000     0          
T        Si     0.960900000000     0.353500000000     0.563300000000     0          
T        Si     0.793025000000     0.376700000000     0.503750000000     0          
T        Si     0.761700000000     0.623466666667     0.834700000000     0          
T        Si     0.914100000000     0.646500000000     0.813300000000     0          
T        Si     0.831975000000     0.623300000000     0.753750000000     0          
T        Si     0.761700000000     0.876533333333     0.334700000000     0          
T        Si     0.914100000000     0.853500000000     0.313300000000     0          
T        Si     0.831975000000     0.876700000000     0.253750000000     0          
T        Si     0.863300000000     0.790133333333     0.084700000000     0          
T        Si     0.960900000000     0.813166666667     0.063300000000     0          
T        Si     0.793025000000     0.789966666667     0.003750000000     0          
T        Si     0.886700000000     0.956800000000     0.415300000000     0          
T        Si     0.789100000000     0.979833333333     0.436700000000     0          
T        Si     0.956975000000     0.956633333333     0.496250000000     0          
T        Si     0.988300000000     0.709866666667     0.165300000000     0          
T        Si     0.835900000000     0.686833333333     0.186700000000     0          
T        Si     0.918025000000     0.710033333333     0.246250000000     0          
T        Si     0.988300000000     0.790133333333     0.165300000000     0          
T        Si     0.835900000000     0.813166666667     0.186700000000     0          
T        Si     0.918025000000     0.789966666667     0.246250000000     0          
T        Si     0.886700000000     0.876533333333     0.415300000000     0          
T        Si     0.789100000000     0.853500000000     0.436700000000     0          
T        Si     0.956975000000     0.876700000000     0.496250000000     0          
T        Si     0.863300000000     0.709866666667     0.084700000000     0          
T        Si     0.960900000000     0.686833333333     0.063300000000     0          
T        Si     0.793025000000     0.710033333333     0.003750000000     0          
T        Si     0.761700000000     0.956800000000     0.334700000000     0          
T        Si     0.914100000000     0.979833333333     0.313300000000     0          
T        Si     0.831975000000     0.956633333333     0.253750000000     0          
T        Si     0.761700000000     0.876533333333     0.834700000000     0          
T        Si     0.914100000000     0.853500000000     0.813300000000     0          
T        Si     0.831975000000     0.876700000000     0.753750000000     0          
T        Si     0.863300000000     0.790133333333     0.584700000000     0          
T        Si     0.960900000000     0.813166666667     0.563300000000     0          
T        Si     0.793025000000     0.789966666667     0.503750000000     0          
T        Si     0.886700000000     0.956800000000     0.915300000000     0          
T        Si     0.789100000000     0.979833333333     0.936700000000     0          
T        Si     0.956975000000     0.956633333333     0.996250000000     0          
T        Si     0.988300000000     0.709866666667     0.665300000000     0          
T        Si     0.835900000000     0.686833333333     0.686700000000     0          
T        Si     0.918025000000     0.710033333333     0.746250000000     0          
T        Si     0.988300000000     0.790133333333     0.665300000000     0          
T        Si     0.835900000000     0.813166666667     0.686700000000     0          
T        Si     0.918025000000     0.789966666667     0.746250000000     0          
T        Si     0.886700000000     0.876533333333     0.915300000000     0          
T        Si     0.789100000000     0.853500000000     0.936700000000     0          
T        Si     0.956975000000     0.876700000000     0.996250000000     0          
T        Si     0.863300000000     0.709866666667     0.584700000000     0          
T        Si     0.960900000000     0.686833333333     0.563300000000     0          
T        Si     0.793025000000     0.710033333333     0.503750000000     0          
T        Si     0.761700000000     0.956800000000     0.834700000000     0          
T        Si     0.914100000000     0.979833333333     0.813300000000     0          
T        Si     0.831975000000     0.956633333333     0.753750000000     0          
O        O      0.131175000000     0.207266666667     0.276800000000     0          
O        O      0.017750000000     0.186233333333     0.382800000000     0          
O        O      0.211425000000     0.206566666667     0.314800000000     0          
O        O      0.045900000000     0.197000000000     0.293200000000     0          
O        O      0.079000000000     0.185866666667     0.205800000000     0          
O        O      0.022000000000     0.250000000000     0.348100000000     0          
O        O      0.071875000000     0.250000000000     0.239300000000     0          
O        O      0.243825000000     0.126066666667     0.026800000000     0          
O        O      0.107250000000     0.147100000000     0.132800000000     0          
O        O      0.163575000000     0.126766666667     0.064800000000     0          
O        O      0.079100000000     0.136333333333     0.043200000000     0          
O        O      0.046000000000     0.147466666667     0.455800000000     0          
O        O      0.103000000000     0.083333333333     0.098100000000     0          
O        O      0.053125000000     0.083333333333     0.489300000000     0          
O        O      0.006175000000     0.292733333333     0.473200000000     0          
O        O      0.142750000000     0.313766666667     0.367200000000     0          
O        O      0.086425000000     0.293433333333     0.435200000000     0          
O        O      0.170900000000     0.303000000000     0.456800000000     0          
O        O      0.204000000000     0.314133333333     0.044200000000     0          
O        O      0.147000000000     0.250000000000     0.401900000000     0          
O        O      0.196875000000     0.250000000000     0.010700000000     0          
O        O      0.118825000000     0.040600000000     0.223200000000     0          
O        O      0.232250000000     0.019566666667     0.117200000000     0          
O        O      0.038575000000     0.039900000000     0.185200000000     0          
O        O      0.204100000000     0.030333333333     0.206800000000     0          
O        O      0.171000000000     0.019200000000     0.294200000000     0          
O        O      0.228000000000     0.083333333333     0.151900000000     0          
O        O      0.178125000000     0.083333333333     0.260700000000     0          
O        O      0.118825000000     0.126066666667     0.223200000000     0          
O        O      0.232250000000     0.147100000000     0.117200000000     0          
O        O      0.038575000000     0.126766666667     0.185200000000     0          
O        O      0.204100000000     0.136333333333     0.206800000000     0          
O        O      0.171000000000     0.147466666667     0.294200000000     0          
O        O      0.006175000000     0.207266666667     0.473200000000     0          
O        O      0.142750000000     0.186233333333     0.367200000000     0          
O        O      0.086425000000     0.206566666667     0.435200000000     0          
O        O      0.170900000000     0.197000000000     0.456800000000     0          
O        O      0.204000000000     0.185866666667     0.044200000000     0          
O        O      0.243825000000     0.040600000000     0.026800000000     0          
O        O      0.107250000000     0.019566666667     0.132800000000     0          
O        O      0.163575000000     0.039900000000     0.064800000000     0          
O        O      0.079100000000     0.030333333333     0.043200000000     0          
O        O      0.046000000000     0.019200000000     0.455800000000     0          
O        O      0.131175000000     0.292733333333     0.276800000000     0          
O        O      0.017750000000     0.313766666667     0.382800000000     0          
O        O      0.211425000000     0.293433333333     0.314800000000     0          
O        O      0.045900000000     0.303000000000     0.293200000000     0          
O        O      0.079000000000     0.314133333333     0.205800000000     0          
O        O      0.131175000000     0.207266666667     0.776800000000     0          
O        O      0.017750000000     0.186233333333     0.882800000000     0          
O        O      0.211425000000     0.206566666667     0.814800000000     0          
O        O      0.045900000000     0.197000000000     0.793200000000     0          
O        O      0.079000000000     0.185866666667     0.705800000000     0          
O        O      0.022000000000     0.250000000000     0.848100000000     0          
O        O      0.071875000000     0.250000000000     0.739300000000     0          
O        O      0.243825000000     0.126066666667     0.526800000000     0          
O        O      0.107250000000     0.147100000000     0.632800000000     0          
O        O      0.163575000000     0.126766666667     0.564800000000     0          
O        O      0.079100000000     0.136333333333     0.543200000000     0          
O        O      0.046000000000     0.147466666667     0.955800000000     0          
O        O      0.103000000000     0.083333333333     0.598100000000     0          
O        O      0.053125000000     0.083333333333     0.989300000000     0          
O        O      0.006175000000     0.292733333333     0.973200000000     0          
O        O      0.142750000000     0.313766666667     0.867200000000     0          
O        O      0.086425000000     0.293433333333     0.935200000000     0          
O        O      0.170900000000     0.303000000000     0.956800000000     0          
O        O      0.204000000000     0.314133333333     0.544200000000     0          
O        O      0.147000000000     0.250000000000     0.901900000000     0          
O        O      0.196875000000     0.250000000000     0.510700000000     0          
O        O      0.118825000000     0.040600000000     0.723200000000     0          
O        O      0.232250000000     0.019566666667     0.617200000000     0          
O        O      0.038575000000     0.039900000000     0.685200000000     0          
O        O      0.204100000000     0.030333333333     0.706800000000     0          
O        O      0.171000000000     0.019200000000     0.794200000000     0          
O        O      0.228000000000     0.083333333333     0.651900000000     0          
O        O      0.178125000000     0.083333333333     0.760700000000     0          
O        O      0.118825000000     0.126066666667     0.723200000000     0          
O        O      0.232250000000     0.147100000000     0.617200000000     0          
O        O      0.038575000000     0.126766666667     0.685200000000     0          
O        O      0.204100000000     0.136333333333     0.706800000000     0          
O        O      0.171000000000     0.147466666667     0.794200000000     0          
O        O      0.006175000000     0.207266666667     0.973200000000     0          
O        O      0.142750000000     0.186233333333     0.867200000000     0          
O        O      0.086425000000     0.206566666667     0.935200000000     0          
O        O      0.170900000000     0.197000000000     0.956800000000     0          
O        O      0.204000000000     0.185866666667     0.544200000000     0          
O        O      0.243825000000     0.040600000000     0.526800000000     0          
O        O      0.107250000000     0.019566666667     0.632800000000     0          
O        O      0.163575000000     0.039900000000     0.564800000000     0          
O        O      0.079100000000     0.030333333333     0.543200000000     0          
O        O      0.046000000000     0.019200000000     0.955800000000     0          
O        O      0.131175000000     0.292733333333     0.776800000000     0          
O        O      0.017750000000     0.313766666667     0.882800000000     0          
O        O      0.211425000000     0.293433333333     0.814800000000     0          
O        O      0.045900000000     0.303000000000     0.793200000000     0          
O        O      0.079000000000     0.314133333333     0.705800000000     0          
O        O      0.131175000000     0.540600000000     0.276800000000     0          
O        O      0.017750000000     0.519566666667     0.382800000000     0          
O        O      0.211425000000     0.539900000000     0.314800000000     0          
O        O      0.045900000000     0.530333333333     0.293200000000     0          
O        O      0.079000000000     0.519200000000     0.205800000000     0          
O        O      0.022000000000     0.583333333333     0.348100000000     0          
O        O      0.071875000000     0.583333333333     0.239300000000     0          
O        O      0.243825000000     0.459400000000     0.026800000000     0          
O        O      0.107250000000     0.480433333333     0.132800000000     0          
O        O      0.163575000000     0.460100000000     0.064800000000     0          
O        O      0.079100000000     0.469666666667     0.043200000000     0          
O        O      0.046000000000     0.480800000000     0.455800000000     0          
O        O      0.103000000000     0.416666666667     0.098100000000     0          
O        O      0.053125000000     0.416666666667     0.489300000000     0          
O        O      0.006175000000     0.626066666667     0.473200000000     0          
O        O      0.142750000000     0.647100000000     0.367200000000     0          
O        O      0.086425000000     0.626766666667     0.435200000000     0          
O        O      0.170900000000     0.636333333333     0.456800000000     0          
O        O      0.204000000000     0.647466666667     0.044200000000     0          
O        O      0.147000000000     0.583333333333     0.401900000000     0          
O        O      0.196875000000     0.583333333333     0.010700000000     0          
O        O      0.118825000000     0.373933333333     0.223200000000     0          
O        O      0.232250000000     0.352900000000     0.117200000000     0          
O        O      0.038575000000     0.373233333333     0.185200000000     0          
O        O      0.204100000000     0.363666666667     0.206800000000     0          
O        O      0.171000000000     0.352533333333     0.294200000000     0          
O        O      0.228000000000     0.416666666667     0.151900000000     0          
O        O      0.178125000000     0.416666666667     0.260700000000     0          
O        O      0.118825000000     0.459400000000     0.223200000000     0          
O        O      0.232250000000     0.480433333333     0.117200000000     0          
O        O      0.038575000000     0.460100000000     0.185200000000     0          
O        O      0.204100000000     0.469666666667     0.206800000000     0          
O        O      0.171000000000     0.480800000000     0.294200000000     0          
O        O      0.006175000000     0.540600000000     0.473200000000     0          
O        O      0.142750000000     0.519566666667     0.367200000000     0          
O        O      0.086425000000     0.539900000000     0.435200000000     0          
O        O      0.170900000000     0.530333333333     0.456800000000     0          
O        O      0.204000000000     0.519200000000     0.044200000000     0          
O        O      0.243825000000     0.373933333333     0.026800000000     0          
O        O      0.107250000000     0.352900000000     0.132800000000     0          
O        O      0.163575000000     0.373233333333     0.064800000000     0          
O        O      0.079100000000     0.363666666667     0.043200000000     0          
O        O      0.046000000000     0.352533333333     0.455800000000     0          
O        O      0.131175000000     0.626066666667     0.276800000000     0          
O        O      0.017750000000     0.647100000000     0.382800000000     0          
O        O      0.211425000000     0.626766666667     0.314800000000     0          
O        O      0.045900000000     0.636333333333     0.293200000000     0          
O        O      0.079000000000     0.647466666667     0.205800000000     0          
O        O      0.131175000000     0.540600000000     0.776800000000     0          
O        O      0.017750000000     0.519566666667     0.882800000000     0          
O        O      0.211425000000     0.539900000000     0.814800000000     0          
O        O      0.045900000000     0.530333333333     0.793200000000     0          
O        O      0.079000000000     0.519200000000     0.705800000000     0          
O        O      0.022000000000     0.583333333333     0.848100000000     0          
O        O      0.071875000000     0.583333333333     0.739300000000     0          
O        O      0.243825000000     0.459400000000     0.526800000000     0          
O        O      0.107250000000     0.480433333333     0.632800000000     0          
O        O      0.163575000000     0.460100000000     0.564800000000     0          
O        O      0.079100000000     0.469666666667     0.543200000000     0          
O        O      0.046000000000     0.480800000000     0.955800000000     0          
O        O      0.103000000000     0.416666666667     0.598100000000     0          
O        O      0.053125000000     0.416666666667     0.989300000000     0          
O        O      0.006175000000     0.626066666667     0.973200000000     0          
O        O      0.142750000000     0.647100000000     0.867200000000     0          
O        O      0.086425000000     0.626766666667     0.935200000000     0          
O        O      0.170900000000     0.636333333333     0.956800000000     0          
O        O      0.204000000000     0.647466666667     0.544200000000     0          
O        O      0.147000000000     0.583333333333     0.901900000000     0          
O        O      0.196875000000     0.583333333333     0.510700000000     0          
O        O      0.118825000000     0.373933333333     0.723200000000     0          
O        O      0.232250000000     0.352900000000     0.617200000000     0          
O        O      0.038575000000     0.373233333333     0.685200000000     0          
O        O      0.204100000000     0.363666666667     0.706800000000     0          
O        O      0.171000000000     0.352533333333     0.794200000000     0          
O        O      0.228000000000     0.416666666667     0.651900000000     0          
O        O      0.178125000000     0.416666666667     0.760700000000     0          
O        O      0.118825000000     0.459400000000     0.723200000000     0          
O        O      0.232250000000     0.480433333333     0.617200000000     0          
O        O      0.038575000000     0.460100000000     0.685200000000     0          
O        O      0.204100000000     0.469666666667     0.706800000000     0          
O        O      0.171000000000     0.480800000000     0.794200000000     0          
O        O      0.006175000000     0.540600000000     0.973200000000     0          
O        O      0.142750000000     0.519566666667     0.867200000000     0          
O        O      0.086425000000     0.539900000000     0.935200000000     0          
O        O      0.170900000000     0.530333333333     0.956800000000     0          
O        O      0.204000000000     0.519200000000     0.544200000000     0          
O        O      0.243825000000     0.373933333333     0.526800000000     0          
O        O      0.107250000000     0.352900000000     0.632800000000     0          
O        O      0.163575000000     0.373233333333     0.564800000000     0          
O        O      0.079100000000     0.363666666667     0.543200000000     0          
O        O      0.046000000000     0.352533333333     0.955800000000     0          
O        O      0.131175000000     0.626066666667     0.776800000000     0          
O        O      0.017750000000     0.647100000000     0.882800000000     0          
O        O      0.211425000000     0.626766666667     0.814800000000     0          
O        O      0.045900000000     0.636333333333     0.793200000000     0          
O        O      0.079000000000     0.647466666667     0.705800000000     0          
O        O      0.131175000000     0.873933333333     0.276800000000     0          
O        O      0.017750000000     0.852900000000     0.382800000000     0          
O        O      0.211425000000     0.873233333333     0.314800000000     0          
O        O      0.045900000000     0.863666666667     0.293200000000     0          
O        O      0.079000000000     0.852533333333     0.205800000000     0          
O        O      0.022000000000     0.916666666667     0.348100000000     0          
O        O      0.071875000000     0.916666666667     0.239300000000     0          
O        O      0.243825000000     0.792733333333     0.026800000000     0          
O        O      0.107250000000     0.813766666667     0.132800000000     0          
O        O      0.163575000000     0.793433333333     0.064800000000     0          
O        O      0.079100000000     0.803000000000     0.043200000000     0          
O        O      0.046000000000     0.814133333333     0.455800000000     0          
O        O      0.103000000000     0.750000000000     0.098100000000     0          
O        O      0.053125000000     0.750000000000     0.489300000000     0          
O        O      0.006175000000     0.959400000000     0.473200000000     0          
O        O      0.142750000000     0.980433333333     0.367200000000     0          
O        O      0.086425000000     0.960100000000     0.435200000000     0          
O        O      0.170900000000     0.969666666667     0.456800000000     0          
O        O      0.204000000000     0.980800000000     0.044200000000     0          
O        O      0.147000000000     0.916666666667     0.401900000000     0          
O        O      0.196875000000     0.916666666667     0.010700000000     0          
O        O      0.118825000000     0.707266666667     0.223200000000     0          
O        O      0.232250000000     0.686233333333     0.117200000000     0          
O        O      0.038575000000     0.706566666667     0.185200000000     0          
O        O      0.204100000000     0.697000000000     0.206800000000     0          
O        O      0.171000000000     0.685866666667     0.294200000000     0          
O        O      0.228000000000     0.750000000000     0.151900000000     0          
O        O      0.178125000000     0.750000000000     0.260700000000     0          
O        O      0.118825000000     0.792733333333     0.223200000000     0          
O        O      0.232250000000     0.813766666667     0.117200000000     0          
O        O      0.038575000000     0.793433333333     0.185200000000     0          
O        O      0.204100000000     0.803000000000     0.206800000000     0          
O        O      0.171000000000     0.814133333333     0.294200000000     0          
O        O      0.006175000000     0.873933333333     0.473200000000     0          
O        O      0.142750000000     0.852900000000     0.367200000000     0          
O        O      0.086425000000     0.873233333333     0.435200000000     0          
O        O      0.170900000000     0.863666666667     0.456800000000     0          
O        O      0.204000000000     0.852533333333     0.044200000000     0          
O        O      0.243825000000     0.707266666667     0.026800000000     0          
O        O      0.107250000000     0.686233333333     0.132800000000     0          
O        O      0.163575000000     0.706566666667     0.064800000000     0          
O        O      0.079100000000     0.697000000000     0.043200000000     0          
O        O      0.046000000000     0.685866666667     0.455800000000     0          
O        O      0.131175000000     0.959400000000     0.276800000000     0          
O        O      0.017750000000     0.980433333333     0.382800000000     0          
O        O      0.211425000000     0.960100000000     0.314800000000     0          
O        O      0.045900000000     0.969666666667     0.293200000000     0          
O        O      0.079000000000     0.980800000000     0.205800000000     0          
O        O      0.131175000000     0.873933333333     0.776800000000     0          
O        O      0.017750000000     0.852900000000     0.882800000000     0          
O        O      0.211425000000     0.873233333333     0.814800000000     0          
O        O      0.045900000000     0.863666666667     0.793200000000     0          
O        O      0.079000000000     0.852533333333     0.705800000000     0          
O        O      0.022000000000     0.916666666667     0.848100000000     0          
O        O      0.071875000000     0.916666666667     0.739300000000     0          
O        O      0.243825000000     0.792733333333     0.526800000000     0          
O        O      0.107250000000     0.813766666667     0.632800000000     0          
O        O      0.163575000000     0.793433333333     0.564800000000     0          
O        O      0.079100000000     0.803000000000     0.543200000000     0          
O        O      0.046000000000     0.814133333333     0.955800000000     0          
O        O      0.103000000000     0.750000000000     0.598100000000     0          
O        O      0.053125000000     0.750000000000     0.989300000000     0          
O        O      0.006175000000     0.959400000000     0.973200000000     0          
O        O      0.142750000000     0.980433333333     0.867200000000     0          
O        O      0.086425000000     0.960100000000     0.935200000000     0          
O        O      0.170900000000     0.969666666667     0.956800000000     0          
O        O      0.204000000000     0.980800000000     0.544200000000     0          
O        O      0.147000000000     0.916666666667     0.901900000000     0          
O        O      0.196875000000     0.916666666667     0.510700000000     0          
O        O      0.118825000000     0.707266666667     0.723200000000     0          
O        O      0.232250000000     0.686233333333     0.617200000000     0          
O        O      0.038575000000     0.706566666667     0.685200000000     0          
O        O      0.204100000000     0.697000000000     0.706800000000     0          
O        O      0.171000000000     0.685866666667     0.794200000000     0          
O        O      0.228000000000     0.750000000000     0.651900000000     0          
O        O      0.178125000000     0.750000000000     0.760700000000     0          
O        O      0.118825000000     0.792733333333     0.723200000000     0          
O        O      0.232250000000     0.813766666667     0.617200000000     0          
O        O      0.038575000000     0.793433333333     0.685200000000     0          
O        O      0.204100000000     0.803000000000     0.706800000000     0          
O        O      0.171000000000     0.814133333333     0.794200000000     0          
O        O      0.006175000000     0.873933333333     0.973200000000     0          
O        O      0.142750000000     0.852900000000     0.867200000000     0          
O        O      0.086425000000     0.873233333333     0.935200000000     0          
O        O      0.170900000000     0.863666666667     0.956800000000     0          
O        O      0.204000000000     0.852533333333     0.544200000000     0          
O        O      0.243825000000     0.707266666667     0.526800000000     0          
O        O      0.107250000000     0.686233333333     0.632800000000     0          
O        O      0.163575000000     0.706566666667     0.564800000000     0          
O        O      0.079100000000     0.697000000000     0.543200000000     0          
O        O      0.046000000000     0.685866666667     0.955800000000     0          
O        O      0.131175000000     0.959400000000     0.776800000000     0          
O        O      0.017750000000     0.980433333333     0.882800000000     0          
O        O      0.211425000000     0.960100000000     0.814800000000     0          
O        O      0.045900000000     0.969666666667     0.793200000000     0          
O        O      0.079000000000     0.980800000000     0.705800000000     0          
O        O      0.381175000000     0.207266666667     0.276800000000     0          
O        O      0.267750000000     0.186233333333     0.382800000000     0          
O        O      0.461425000000     0.206566666667     0.314800000000     0          
O        O      0.295900000000     0.197000000000     0.293200000000     0          
O        O      0.329000000000     0.185866666667     0.205800000000     0          
O        O      0.272000000000     0.250000000000     0.348100000000     0          
O        O      0.321875000000     0.250000000000     0.239300000000     0          
O        O      0.493825000000     0.126066666667     0.026800000000     0          
O        O      0.357250000000     0.147100000000     0.132800000000     0          
O        O      0.413575000000     0.126766666667     0.064800000000     0          
O        O      0.329100000000     0.136333333333     0.043200000000     0          
O        O      0.296000000000     0.147466666667     0.455800000000     0          
O        O      0.353000000000     0.083333333333     0.098100000000     0          
O        O      0.303125000000     0.083333333333     0.489300000000     0          
O        O      0.256175000000     0.292733333333     0.473200000000     0          
O        O      0.392750000000     0.313766666667     0.367200000000     0          
O        O      0.336425000000     0.293433333333     0.435200000000     0          
O        O      0.420900000000     0.303000000000     0.456800000000     0          
O        O      0.454000000000     0.314133333333     0.044200000000     0          
O        O      0.397000000000     0.250000000000     0.401900000000     0          
O        O      0.446875000000     0.250000000000     0.010700000000     0          
O        O      0.368825000000     0.040600000000     0.223200000000     0          
O        O      0.482250000000     0.019566666667     0.117200000000     0          
O        O      0.288575000000     0.039900000000     0.185200000000     0          
O        O      0.454100000000     0.030333333333     0.206800000000     0          
O        O      0.421000000000     0.019200000000     0.294200000000     0          
O        O      0.478000000000     0.083333333333     0.151900000000     0          
O        O      0.428125000000     0.083333333333     0.260700000000     0          
O        O      0.368825000000     0.126066666667     0.223200000000     0          
O        O      0.482250000000     0.147100000000     0.117200000000     0          
O        O      0.288575000000     0.126766666667     0.185200000000     0          
O        O      0.454100000000     0.136333333333     0.206800000000     0          
O        O      0.421000000000     0.147466666667     0.294200000000     0          
O        O      0.256175000000     0.207266666667     0.473200000000     0          
O        O      0.392750000000     0.186233333333     0.367200000000     0          
O        O      0.336425000000     0.206566666667     0.435200000000     0          
O        O      0.420900000000     0.197000000000     0.456800000000     0          
O        O      0.454000000000     0.185866666667     0.044200000000     0          
O        O      0.493825000000     0.040600000000     0.026800000000     0          
O        O      0.357250000000     0.019566666667     0.132800000000     0          
O        O      0.413575000000     0.039900000000     0.064800000000     0          
O        O      0.329100000000     0.030333333333     0.043200000000     0          
O        O      0.296000000000     0.019200000000     0.455800000000     0          
O        O      0.381175000000     0.292733333333     0.276800000000     0          
O        O      0.267750000000     0.313766666667     0.382800000000     0          
O        O      0.461425000000     0.293433333333     0.314800000000     0          
O        O      0.295900000000     0.303000000000     0.293200000000     0          
O        O      0.329000000000     0.314133333333     0.205800000000     0          
O        O      0.381175000000     0.207266666667     0.776800000000     0          
O        O      0.267750000000     0.186233333333     0.882800000000     0          
O        O      0.461425000000     0.206566666667     0.814800000000     0          
O        O      0.295900000000     0.197000000000     0.793200000000     0          
O        O      0.329000000000     0.185866666667     0.705800000000     0          
O        O      0.272000000000     0.250000000000     0.848100000000     0          
O        O      0.321875000000     0.250000000000     0.739300000000     0          
O        O      0.493825000000     0.126066666667     0.526800000000     0          
O        O      0.357250000000     0.147100000000     0.632800000000     0          
O        O      0.413575000000     0.126766666667     0.564800000000     0          
O        O      0.329100000000     0.136333333333     0.543200000000     0          
O        O      0.296000000000     0.147466666667     0.955800000000     0          
O        O      0.353000000000     0.083333333333     0.598100000000     0          
O        O      0.303125000000     0.083333333333     0.989300000000     0          
O        O      0.256175000000     0.292733333333     0.973200000000     0          
O        O      0.392750000000     0.313766666667     0.867200000000     0          
O        O      0.336425000000     0.293433333333     0.935200000000     0          
O        O      0.420900000000     0.303000000000     0.956800000000     0          
O        O      0.454000000000     0.314133333333     0.544200000000     0          
O        O      0.397000000000     0.250000000000     0.901900000000     0          
O        O      0.446875000000     0.250000000000     0.510700000000     0          
O        O      0.368825000000     0.040600000000     0.723200000000     0          
O        O      0.482250000000     0.019566666667     0.617200000000     0          
O        O      0.288575000000     0.039900000000     0.685200000000     0          
O        O      0.454100000000     0.030333333333     0.706800000000     0          
O        O      0.421000000000     0.019200000000     0.794200000000     0          
O        O      0.478000000000     0.083333333333     0.651900000000     0          
O        O      0.428125000000     0.083333333333     0.760700000000     0          
O        O      0.368825000000     0.126066666667     0.723200000000     0          
O        O      0.482250000000     0.147100000000     0.617200000000     0          
O        O      0.288575000000     0.126766666667     0.685200000000     0          
O        O      0.454100000000     0.136333333333     0.706800000000     0          
O        O      0.421000000000     0.147466666667     0.794200000000     0          
O        O      0.256175000000     0.207266666667     0.973200000000     0          
O        O      0.392750000000     0.186233333333     0.867200000000     0          
O        O      0.336425000000     0.206566666667     0.935200000000     0          
O        O      0.420900000000     0.197000000000     0.956800000000     0          
O        O      0.454000000000     0.185866666667     0.544200000000     0          
O        O      0.493825000000     0.040600000000     0.526800000000     0          
O        O      0.357250000000     0.019566666667     0.632800000000     0          
O        O      0.413575000000     0.039900000000     0.564800000000     0          
O        O      0.329100000000     0.030333333333     0.543200000000     0          
O        O      0.296000000000     0.019200000000     0.955800000000     0          
O        O      0.381175000000     0.292733333333     0.776800000000     0          
O        O      0.267750000000     0.313766666667     0.882800000000     0          
O        O      0.461425000000     0.293433333333     0.814800000000     0          
O        O      0.295900000000     0.303000000000     0.793200000000     0          
O        O      0.329000000000     0.314133333333     0.705800000000     0          
O        O      0.381175000000     0.540600000000     0.276800000000     0          
O        O      0.267750000000     0.519566666667     0.382800000000     0          
O        O      0.461425000000     0.539900000000     0.314800000000     0          
O        O      0.295900000000     0.530333333333     0.293200000000     0          
O        O      0.329000000000     0.519200000000     0.205800000000     0          
O        O      0.272000000000     0.583333333333     0.348100000000     0          
O        O      0.321875000000     0.583333333333     0.239300000000     0          
O        O      0.493825000000     0.459400000000     0.026800000000     0          
O        O      0.357250000000     0.480433333333     0.132800000000     0          
O        O      0.413575000000     0.460100000000     0.064800000000     0          
O        O      0.329100000000     0.469666666667     0.043200000000     0          
O        O      0.296000000000     0.480800000000     0.455800000000     0          
O        O      0.353000000000     0.416666666667     0.098100000000     0          
O        O      0.303125000000     0.416666666667     0.489300000000     0          
O        O      0.256175000000     0.626066666667     0.473200000000     0          
O        O      0.392750000000     0.647100000000     0.367200000000     0          
O        O      0.336425000000     0.626766666667     0.435200000000     0          
O        O      0.420900000000     0.636333333333     0.456800000000     0          
O        O      0.454000000000     0.647466666667     0.044200000000     0          
O        O      0.397000000000     0.583333333333     0.401900000000     0          
O        O      0.446875000000     0.583333333333     0.010700000000     0          
O        O      0.368825000000     0.373933333333     0.223200000000     0          
O        O      0.482250000000     0.352900000000     0.117200000000     0          
O        O      0.288575000000     0.373233333333     0.185200000000     0          
O        O      0.454100000000     0.363666666667     0.206800000000     0          
O        O      0.421000000000     0.352533333333     0.294200000000     0          
O        O      0.478000000000     0.416666666667     0.151900000000     0          
O        O      0.428125000000     0.416666666667     0.260700000000     0          
O        O      0.368825000000     0.459400000000     0.223200000000     0          
O        O      0.482250000000     0.480433333333     0.117200000000     0          
O        O      0.288575000000     0.460100000000     0.185200000000     0          
O        O      0.454100000000     0.469666666667     0.206800000000     0          
O        O      0.421000000000     0.480800000000     0.294200000000     0          
O        O      0.256175000000     0.540600000000     0.473200000000     0          
O        O      0.392750000000     0.519566666667     0.367200000000     0          
O        O      0.336425000000     0.539900000000     0.435200000000     0          
O        O      0.420900000000     0.530333333333     0.456800000000     0          
O        O      0.454000000000     0.519200000000     0.044200000000     0          
O        O      0.493825000000     0.373933333333     0.026800000000     0          
O        O      0.357250000000     0.352900000000     0.132800000000     0          
O        O      0.413575000000     0.373233333333     0.064800000000     0          
O        O      0.329100000000     0.363666666667     0.043200000000     0          
O        O      0.296000000000     0.352533333333     0.455800000000     0          
O        O      0.381175000000     0.626066666667     0.276800000000     0          
O        O      0.267750000000     0.647100000000     0.382800000000     0          
O        O      0.461425000000     0.626766666667     0.314800000000     0          
O        O      0.295900000000     0.636333333333     0.293200000000     0          
O        O      0.329000000000     0.647466666667     0.205800000000     0          
O        O      0.381175000000     0.540600000000     0.776800000000     0          
O        O      0.267750000000     0.519566666667     0.882800000000     0          
O        O      0.461425000000     0.539900000000     0.814800000000     0          
O        O      0.295900000000     0.530333333333     0.793200000000     0          
O        O      0.329000000000     0.519200000000     0.705800000000     0          
O        O      0.272000000000     0.583333333333     0.848100000000     0          
O        O      0.321875000000     0.583333333333     0.739300000000     0          
O        O      0.493825000000     0.459400000000     0.526800000000     0          
O        O      0.357250000000     0.480433333333     0.632800000000     0          
O        O      0.413575000000     0.460100000000     0.564800000000     0          
O        O      0.329100000000     0.469666666667     0.543200000000     0          
O        O      0.296000000000     0.480800000000     0.955800000000     0          
O        O      0.353000000000     0.416666666667     0.598100000000     0          
O        O      0.303125000000     0.416666666667     0.989300000000     0          
O        O      0.256175000000     0.626066666667     0.973200000000     0          
O        O      0.392750000000     0.647100000000     0.867200000000     0          
O        O      0.336425000000     0.626766666667     0.935200000000     0          
O        O      0.420900000000     0.636333333333     0.956800000000     0          
O        O      0.454000000000     0.647466666667     0.544200000000     0          
O        O      0.397000000000     0.583333333333     0.901900000000     0          
O        O      0.446875000000     0.583333333333     0.510700000000     0          
O        O      0.368825000000     0.373933333333     0.723200000000     0          
O        O      0.482250000000     0.352900000000     0.617200000000     0          
O        O      0.288575000000     0.373233333333     0.685200000000     0          
O        O      0.454100000000     0.363666666667     0.706800000000     0          
O        O      0.421000000000     0.352533333333     0.794200000000     0          
O        O      0.478000000000     0.416666666667     0.651900000000     0          
O        O      0.428125000000     0.416666666667     0.760700000000     0          
O        O      0.368825000000     0.459400000000     0.723200000000     0          
O        O      0.482250000000     0.480433333333     0.617200000000     0          
O        O      0.288575000000     0.460100000000     0.685200000000     0          
O        O      0.454100000000     0.469666666667     0.706800000000     0          
O        O      0.421000000000     0.480800000000     0.794200000000     0          
O        O      0.256175000000     0.540600000000     0.973200000000     0          
O        O      0.392750000000     0.519566666667     0.867200000000     0          
O        O      0.336425000000     0.539900000000     0.935200000000     0          
O        O      0.420900000000     0.530333333333     0.956800000000     0          
O        O      0.454000000000     0.519200000000     0.544200000000     0          
O        O      0.493825000000     0.373933333333     0.526800000000     0          
O        O      0.357250000000     0.352900000000     0.632800000000     0          
O        O      0.413575000000     0.373233333333     0.564800000000     0          
O        O      0.329100000000     0.363666666667     0.543200000000     0          
O        O      0.296000000000     0.352533333333     0.955800000000     0          
O        O      0.381175000000     0.626066666667     0.776800000000     0          
O        O      0.267750000000     0.647100000000     0.882800000000     0          
O        O      0.461425000000     0.626766666667     0.814800000000     0          
O        O      0.295900000000     0.636333333333     0.793200000000     0          
O        O      0.329000000000     0.647466666667     0.705800000000     0          
O        O      0.381175000000     0.873933333333     0.276800000000     0          
O        O      0.267750000000     0.852900000000     0.382800000000     0          
O        O      0.461425000000     0.873233333333     0.314800000000     0          
O        O      0.295900000000     0.863666666667     0.293200000000     0          
O        O      0.329000000000     0.852533333333     0.205800000000     0          
O        O      0.272000000000     0.916666666667     0.348100000000     0          
O        O      0.321875000000     0.916666666667     0.239300000000     0          
O        O      0.493825000000     0.792733333333     0.026800000000     0          
O        O      0.357250000000     0.813766666667     0.132800000000     0          
O        O      0.413575000000     0.793433333333     0.064800000000     0          
O        O      0.329100000000     0.803000000000     0.043200000000     0          
O        O      0.296000000000     0.814133333333     0.455800000000     0          
O        O      0.353000000000     0.750000000000     0.098100000000     0          
O        O      0.303125000000     0.750000000000     0.489300000000     0          
O        O      0.256175000000     0.959400000000     0.473200000000     0          
O        O      0.392750000000     0.980433333333     0.367200000000     0          
O        O      0.336425000000     0.960100000000     0.435200000000     0          
O        O      0.420900000000     0.969666666667     0.456800000000     0          
O        O      0.454000000000     0.980800000000     0.044200000000     0          
O        O      0.397000000000     0.916666666667     0.401900000000     0          
O        O      0.446875000000     0.916666666667     0.010700000000     0          
O        O      0.368825000000     0.707266666667     0.223200000000     0          
O        O      0.482250000000     0.686233333333     0.117200000000     0          
O        O      0.288575000000     0.706566666667     0.185200000000     0          
O        O      0.454100000000     0.697000000000     0.206800000000     0          
O        O      0.421000000000     0.685866666667     0.294200000000     0          
O        O      0.478000000000     0.750000000000     0.151900000000     0          
O        O      0.428125000000     0.750000000000     0.260700000000     0          
O        O      0.368825000000     0.792733333333     0.223200000000     0          
O        O      0.482250000000     0.813766666667     0.117200000000     0          
O        O      0.288575000000     0.793433333333     0.185200000000     0          
O        O      0.454100000000     0.803000000000     0.206800000000     0          
O        O      0.421000000000     0.814133333333     0.294200000000     0          
O        O      0.256175000000     0.873933333333     0.473200000000     0          
O        O      0.392750000000     0.852900000000     0.367200000000     0          
O        O      0.336425000000     0.873233333333     0.435200000000     0          
O        O      0.420900000000     0.863666666667     0.456800000000     0          
O        O      0.454000000000     0.852533333333     0.044200000000     0          
O        O      0.493825000000     0.707266666667     0.026800000000     0          
O        O      0.357250000000     0.686233333333     0.132800000000     0          
O        O      0.413575000000     0.706566666667     0.064800000000     0          
O        O      0.329100000000     0.697000000000     0.043200000000     0          
O        O      0.296000000000     0.685866666667     0.455800000000     0          
O        O      0.381175000000     0.959400000000     0.276800000000     0          
O        O      0.267750000000     0.980433333333     0.382800000000     0          
O        O      0.461425000000     0.960100000000     0.314800000000     0          
O        O      0.295900000000     0.969666666667     0.293200000000     0          
O        O      0.329000000000     0.980800000000     0.205800000000     0          
O        O      0.381175000000     0.873933333333     0.776800000000     0          
O        O      0.267750000000     0.852900000000     0.882800000000     0          
O        O      0.461425000000     0.873233333333     0.814800000000     0          
O        O      0.295900000000     0.863666666667     0.793200000000     0          
O        O      0.329000000000     0.852533333333     0.705800000000     0          
O        O      0.272000000000     0.916666666667     0.848100000000     0          
O        O      0.321875000000     0.916666666667     0.739300000000     0          
O        O      0.493825000000     0.792733333333     0.526800000000     0          
O        O      0.357250000000     0.813766666667     0.632800000000     0          
O        O      0.413575000000     0.793433333333     0.564800000000     0          
O        O      0.329100000000     0.803000000000     0.543200000000     0          
O        O      0.296000000000     0.814133333333     0.955800000000     0          
O        O      0.353000000000     0.750000000000     0.598100000000     0          
O        O      0.303125000000     0.750000000000     0.989300000000     0          
O        O      0.256175000000     0.959400000000     0.973200000000     0          
O        O      0.392750000000     0.980433333333     0.867200000000     0          
O        O      0.336425000000     0.960100000000     0.935200000000     0          
O        O      0.420900000000     0.969666666667     0.956800000000     0          
O        O      0.454000000000     0.980800000000     0.544200000000     0          
O        O      0.397000000000     0.916666666667     0.901900000000     0          
O        O      0.446875000000     0.916666666667     0.510700000000     0          
O        O      0.368825000000     0.707266666667     0.723200000000     0          
O        O      0.482250000000     0.686233333333     0.617200000000     0          
O        O      0.288575000000     0.706566666667     0.685200000000     0          
O        O      0.454100000000     0.697000000000     0.706800000000     0          
O        O      0.421000000000     0.685866666667     0.794200000000     0          
O        O      0.478000000000     0.750000000000     0.651900000000     0          
O        O      0.428125000000     0.750000000000     0.760700000000     0          
O        O      0.368825000000     0.792733333333     0.723200000000     0          
O        O      0.482250000000     0.813766666667     0.617200000000     0          
O        O      0.288575000000     0.793433333333     0.685200000000     0          
O        O      0.454100000000     0.803000000000     0.706800000000     0          
O        O      0.421000000000     0.814133333333     0.794200000000     0          
O        O      0.256175000000     0.873933333333     0.973200000000     0          
O        O      0.392750000000     0.852900000000     0.867200000000     0          
O        O      0.336425000000     0.873233333333     0.935200000000     0          
O        O      0.420900000000     0.863666666667     0.956800000000     0          
O        O      0.454000000000     0.852533333333     0.544200000000     0          
O        O      0.493825000000     0.707266666667     0.526800000000     0          
O        O      0.357250000000     0.686233333333     0.632800000000     0          
O        O      0.413575000000     0.706566666667     0.564800000000     0          
O        O      0.329100000000     0.697000000000     0.543200000000     0          
O        O      0.296000000000     0.685866666667     0.955800000000     0          
O        O      0.381175000000     0.959400000000     0.776800000000     0          
O        O      0.267750000000     0.980433333333     0.882800000000     0          
O        O      0.461425000000     0.960100000000     0.814800000000     0          
O        O      0.295900000000     0.969666666667     0.793200000000     0          
O        O      0.329000000000     0.980800000000     0.705800000000     0          
O        O      0.631175000000     0.207266666667     0.276800000000     0          
O        O      0.517750000000     0.186233333333     0.382800000000     0          
O        O      0.711425000000     0.206566666667     0.314800000000     0          
O        O      0.545900000000     0.197000000000     0.293200000000     0          
O        O      0.579000000000     0.185866666667     0.205800000000     0          
O        O      0.522000000000     0.250000000000     0.348100000000     0          
O        O      0.571875000000     0.250000000000     0.239300000000     0          
O        O      0.743825000000     0.126066666667     0.026800000000     0          
O        O      0.607250000000     0.147100000000     0.132800000000     0          
O        O      0.663575000000     0.126766666667     0.064800000000     0          
O        O      0.579100000000     0.136333333333     0.043200000000     0          
O        O      0.546000000000     0.147466666667     0.455800000000     0          
O        O      0.603000000000     0.083333333333     0.098100000000     0          
O        O      0.553125000000     0.083333333333     0.489300000000     0          
O        O      0.506175000000     0.292733333333     0.473200000000     0          
O        O      0.642750000000     0.313766666667     0.367200000000     0          
O        O      0.586425000000     0.293433333333     0.435200000000     0          
O        O      0.670900000000     0.303000000000     0.456800000000     0          
O        O      0.704000000000     0.314133333333     0.044200000000     0          
O        O      0.647000000000     0.250000000000     0.401900000000     0          
O        O      0.696875000000     0.250000000000     0.010700000000     0          
O        O      0.618825000000     0.040600000000     0.223200000000     0          
O        O      0.732250000000     0.019566666667     0.117200000000     0          
O        O      0.538575000000     0.039900000000     0.185200000000     0          
O        O      0.704100000000     0.030333333333     0.206800000000     0          
O        O      0.671000000000     0.019200000000     0.294200000000     0          
O        O      0.728000000000     0.083333333333     0.151900000000     0          
O        O      0.678125000000     0.083333333333     0.260700000000     0          
O        O      0.618825000000     0.126066666667     0.223200000000     0          
O        O      0.732250000000     0.147100000000     0.117200000000     0          
O        O      0.538575000000     0.126766666667     0.185200000000     0          
O        O      0.704100000000     0.136333333333     0.206800000000     0          
O        O      0.671000000000     0.147466666667     0.294200000000     0          
O        O      0.506175000000     0.207266666667     0.473200000000     0          
O        O      0.642750000000     0.186233333333     0.367200000000     0          
O        O      0.586425000000     0.206566666667     0.435200000000     0          
O        O      0.670900000000     0.197000000000     0.456800000000     0          
O        O      0.704000000000     0.185866666667     0.044200000000     0          
O        O      0.743825000000     0.040600000000     0.026800000000     0          
O        O      0.607250000000     0.019566666667     0.132800000000     0          
O        O      0.663575000000     0.039900000000     0.064800000000     0          
O        O      0.579100000000     0.030333333333     0.043200000000     0          
O        O      0.546000000000     0.019200000000     0.455800000000     0          
O        O      0.631175000000     0.292733333333     0.276800000000     0          
O        O      0.517750000000     0.313766666667     0.382800000000     0          
O        O      0.711425000000     0.293433333333     0.314800000000     0          
O        O      0.545900000000     0.303000000000     0.293200000000     0          
O        O      0.579000000000     0.314133333333     0.205800000000     0          
O        O      0.631175000000     0.207266666667     0.776800000000     0          
O        O      0.517750000000     0.186233333333     0.882800000000     0          
O        O      0.711425000000     0.206566666667     0.814800000000     0          
O        O      0.545900000000     0.197000000000     0.793200000000     0          
O        O      0.579000000000     0.185866666667     0.705800000000     0          
O        O      0.522000000000     0.250000000000     0.848100000000     0          
O        O      0.571875000000     0.250000000000     0.739300000000     0          
O        O      0.743825000000     0.126066666667     0.526800000000     0          
O        O      0.607250000000     0.147100000000     0.632800000000     0          
O        O      0.663575000000     0.126766666667     0.564800000000     0          
O        O      0.579100000000     0.136333333333     0.543200000000     0          
O        O      0.546000000000     0.147466666667     0.955800000000     0          
O        O      0.603000000000     0.083333333333     0.598100000000     0          
O        O      0.553125000000     0.083333333333     0.989300000000     0          
O        O      0.506175000000     0.292733333333     0.973200000000     0          
O        O      0.642750000000     0.313766666667     0.867200000000     0          
O        O      0.586425000000     0.293433333333     0.935200000000     0          
O        O      0.670900000000     0.303000000000     0.956800000000     0          
O        O      0.704000000000     0.314133333333     0.544200000000     0          
O        O      0.647000000000     0.250000000000     0.901900000000     0          
O        O      0.696875000000     0.250000000000     0.510700000000     0          
O        O      0.618825000000     0.040600000000     0.723200000000     0          
O        O      0.732250000000     0.019566666667     0.617200000000     0          
O        O      0.538575000000     0.039900000000     0.685200000000     0          
O        O      0.704100000000     0.030333333333     0.706800000000     0          
O        O      0.671000000000     0.019200000000     0.794200000000     0          
O        O      0.728000000000     0.083333333333     0.651900000000     0          
O        O      0.678125000000     0.083333333333     0.760700000000     0          
O        O      0.618825000000     0.126066666667     0.723200000000     0          
O        O      0.732250000000     0.147100000000     0.617200000000     0          
O        O      0.538575000000     0.126766666667     0.685200000000     0          
O        O      0.704100000000     0.136333333333     0.706800000000     0          
O        O      0.671000000000     0.147466666667     0.794200000000     0          
O        O      0.506175000000     0.207266666667     0.973200000000     0          
O        O      0.642750000000     0.186233333333     0.867200000000     0          
O        O      0.586425000000     0.206566666667     0.935200000000     0          
O        O      0.670900000000     0.197000000000     0.956800000000     0          
O        O      0.704000000000     0.185866666667     0.544200000000     0          
O        O      0.743825000000     0.040600000000     0.526800000000     0          
O        O      0.607250000000     0.019566666667     0.632800000000     0          
O        O      0.663575000000     0.039900000000     0.564800000000     0          
O        O      0.579100000000     0.030333333333     0.543200000000     0          
O        O      0.546000000000     0.019200000000     0.955800000000     0          
O        O      0.631175000000     0.292733333333     0.776800000000     0          
O        O      0.517750000000     0.313766666667     0.882800000000     0          
O        O      0.711425000000     0.293433333333     0.814800000000     0          
O        O      0.545900000000     0.303000000000     0.793200000000     0          
O        O      0.579000000000     0.314133333333     0.705800000000     0          
O        O      0.631175000000     0.540600000000     0.276800000000     0          
O        O      0.517750000000     0.519566666667     0.382800000000     0          
O        O      0.711425000000     0.539900000000     0.314800000000     0          
O        O      0.545900000000     0.530333333333     0.293200000000     0          
O        O      0.579000000000     0.519200000000     0.205800000000     0          
O        O      0.522000000000     0.583333333333     0.348100000000     0          
O        O      0.571875000000     0.583333333333     0.239300000000     0          
O        O      0.743825000000     0.459400000000     0.026800000000     0          
O        O      0.607250000000     0.480433333333     0.132800000000     0          
O        O      0.663575000000     0.460100000000     0.064800000000     0          
O        O      0.579100000000     0.469666666667     0.043200000000     0          
O        O      0.546000000000     0.480800000000     0.455800000000     0          
O        O      0.603000000000     0.416666666667     0.098100000000     0          
O        O      0.553125000000     0.416666666667     0.489300000000     0          
O        O      0.506175000000     0.626066666667     0.473200000000     0          
O        O      0.642750000000     0.647100000000     0.367200000000     0          
O        O      0.586425000000     0.626766666667     0.435200000000     0          
O        O      0.670900000000     0.636333333333     0.456800000000     0          
O        O      0.704000000000     0.647466666667     0.044200000000     0          
O        O      0.647000000000     0.583333333333     0.401900000000     0          
O        O      0.696875000000     0.583333333333     0.010700000000     0          
O        O      0.618825000000     0.373933333333     0.223200000000     0          
O        O      0.732250000000     0.352900000000     0.117200000000     0          
O        O      0.538575000000     0.373233333333     0.185200000000     0          
O        O      0.704100000000     0.363666666667     0.206800000000     0          
O        O      0.671000000000     0.352533333333     0.294200000000     0          
O        O      0.728000000000     0.416666666667     0.151900000000     0          
O        O      0.678125000000     0.416666666667     0.260700000000     0          
O        O      0.618825000000     0.459400000000     0.223200000000     0          
O        O      0.732250000000     0.480433333333     0.117200000000     0          
O        O      0.538575000000     0.460100000000     0.185200000000     0          
O        O      0.704100000000     0.469666666667     0.206800000000     0          
O        O      0.671000000000     0.480800000000     0.294200000000     0          
O        O      0.506175000000     0.540600000000     0.473200000000     0          
O        O      0.642750000000     0.519566666667     0.367200000000     0          
O        O      0.586425000000     0.539900000000     0.435200000000     0          
O        O      0.670900000000     0.530333333333     0.456800000000     0          
O        O      0.704000000000     0.519200000000     0.044200000000     0          
O        O      0.743825000000     0.373933333333     0.026800000000     0          
O        O      0.607250000000     0.352900000000     0.132800000000     0          
O        O      0.663575000000     0.373233333333     0.064800000000     0          
O        O      0.579100000000     0.363666666667     0.043200000000     0          
O        O      0.546000000000     0.352533333333     0.455800000000     0          
O        O      0.631175000000     0.626066666667     0.276800000000     0          
O        O      0.517750000000     0.647100000000     0.382800000000     0          
O        O      0.711425000000     0.626766666667     0.314800000000     0          
O        O      0.545900000000     0.636333333333     0.293200000000     0          
O        O      0.579000000000     0.647466666667     0.205800000000     0          
O        O      0.631175000000     0.540600000000     0.776800000000     0          
O        O      0.517750000000     0.519566666667     0.882800000000     0          
O        O      0.711425000000     0.539900000000     0.814800000000     0          
O        O      0.545900000000     0.530333333333     0.793200000000     0          
O        O      0.579000000000     0.519200000000     0.705800000000     0          
O        O      0.522000000000     0.583333333333     0.848100000000     0          
O        O      0.571875000000     0.583333333333     0.739300000000     0          
O        O      0.743825000000     0.459400000000     0.526800000000     0          
O        O      0.607250000000     0.480433333333     0.632800000000     0          
O        O      0.663575000000     0.460100000000     0.564800000000     0          
O        O      0.579100000000     0.469666666667     0.543200000000     0          
O        O      0.546000000000     0.480800000000     0.955800000000     0          
O        O      0.603000000000     0.416666666667     0.598100000000     0          
O        O      0.553125000000     0.416666666667     0.989300000000     0          
O        O      0.506175000000     0.626066666667     0.973200000000     0          
O        O      0.642750000000     0.647100000000     0.867200000000     0          
O        O      0.586425000000     0.626766666667     0.935200000000     0          
O        O      0.670900000000     0.636333333333     0.956800000000     0          
O        O      0.704000000000     0.647466666667     0.544200000000     0          
O        O      0.647000000000     0.583333333333     0.901900000000     0          
O        O      0.696875000000     0.583333333333     0.510700000000     0          
O        O      0.618825000000     0.373933333333     0.723200000000     0          
O        O      0.732250000000     0.352900000000     0.617200000000     0          
O        O      0.538575000000     0.373233333333     0.685200000000     0          
O        O      0.704100000000     0.363666666667     0.706800000000     0          
O        O      0.671000000000     0.352533333333     0.794200000000     0          
O        O      0.728000000000     0.416666666667     0.651900000000     0          
O        O      0.678125000000     0.416666666667     0.760700000000     0          
O        O      0.618825000000     0.459400000000     0.723200000000     0          
O        O      0.732250000000     0.480433333333     0.617200000000     0          
O        O      0.538575000000     0.460100000000     0.685200000000     0          
O        O      0.704100000000     0.469666666667     0.706800000000     0          
O        O      0.671000000000     0.480800000000     0.794200000000     0          
O        O      0.506175000000     0.540600000000     0.973200000000     0          
O        O      0.642750000000     0.519566666667     0.867200000000     0          
O        O      0.586425000000     0.539900000000     0.935200000000     0          
O        O      0.670900000000     0.530333333333     0.956800000000     0          
O        O      0.704000000000     0.519200000000     0.544200000000     0          
O        O      0.743825000000     0.373933333333     0.526800000000     0          
O        O      0.607250000000     0.352900000000     0.632800000000     0          
O        O      0.663575000000     0.373233333333     0.564800000000     0          
O        O      0.579100000000     0.363666666667     0.543200000000     0          
O        O      0.546000000000     0.352533333333     0.955800000000     0          
O        O      0.631175000000     0.626066666667     0.776800000000     0          
O        O      0.517750000000     0.647100000000     0.882800000000     0          
O        O      0.711425000000     0.626766666667     0.814800000000     0          
O        O      0.545900000000     0.636333333333     0.793200000000     0          
O        O      0.579000000000     0.647466666667     0.705800000000     0          
O        O      0.631175000000     0.873933333333     0.276800000000     0          
O        O      0.517750000000     0.852900000000     0.382800000000     0          
O        O      0.711425000000     0.873233333333     0.314800000000     0          
O        O      0.545900000000     0.863666666667     0.293200000000     0          
O        O      0.579000000000     0.852533333333     0.205800000000     0          
O        O      0.522000000000     0.916666666667     0.348100000000     0          
O        O      0.571875000000     0.916666666667     0.239300000000     0          
O        O      0.743825000000     0.792733333333     0.026800000000     0          
O        O      0.607250000000     0.813766666667     0.132800000000     0          
O        O      0.663575000000     0.793433333333     0.064800000000     0          
O        O      0.579100000000     0.803000000000     0.043200000000     0          
O        O      0.546000000000     0.814133333333     0.455800000000     0          
O        O      0.603000000000     0.750000000000     0.098100000000     0          
O        O      0.553125000000     0.750000000000     0.489300000000     0          
O        O      0.506175000000     0.959400000000     0.473200000000     0          
O        O      0.642750000000     0.980433333333     0.367200000000     0          
O        O      0.586425000000     0.960100000000     0.435200000000     0          
O        O      0.670900000000     0.969666666667     0.456800000000     0          
O        O      0.704000000000     0.980800000000     0.044200000000     0          
O        O      0.647000000000     0.916666666667     0.401900000000     0          
O        O      0.696875000000     0.916666666667     0.010700000000     0          
O        O      0.618825000000     0.707266666667     0.223200000000     0          
O        O      0.732250000000     0.686233333333     0.117200000000     0          
O        O      0.538575000000     0.706566666667     0.185200000000     0          
O        O      0.704100000000     0.697000000000     0.206800000000     0          
O        O      0.671000000000     0.685866666667     0.294200000000     0          
O        O      0.728000000000     0.750000000000     0.151900000000     0          
O        O      0.678125000000     0.750000000000     0.260700000000     0          
O        O      0.618825000000     0.792733333333     0.223200000000     0          
O        O      0.732250000000     0.813766666667     0.117200000000     0          
O        O      0.538575000000     0.793433333333     0.185200000000     0          
O        O      0.704100000000     0.803000000000     0.206800000000     0          
O        O      0.671000000000     0.814133333333     0.294200000000     0          
O        O      0.506175000000     0.873933333333     0.473200000000     0          
O        O      0.642750000000     0.852900000000     0.367200000000     0          
O        O      0.586425000000     0.873233333333     0.435200000000     0          
O        O      0.670900000000     0.863666666667     0.456800000000     0          
O        O      0.704000000000     0.852533333333     0.044200000000     0          
O        O      0.743825000000     0.707266666667     0.026800000000     0          
O        O      0.607250000000     0.686233333333     0.132800000000     0          
O        O      0.663575000000     0.706566666667     0.064800000000     0          
O        O      0.579100000000     0.697000000000     0.043200000000     0          
O        O      0.546000000000     0.685866666667     0.455800000000     0          
O        O      0.631175000000     0.959400000000     0.276800000000     0          
O        O      0.517750000000     0.980433333333     0.382800000000     0          
O        O      0.711425000000     0.960100000000     0.314800000000     0          
O        O      0.545900000000     0.969666666667     0.293200000000     0          
O        O      0.579000000000     0.980800000000     0.205800000000     0          
O        O      0.631175000000     0.873933333333     0.776800000000     0          
O        O      0.517750000000     0.852900000000     0.882800000000     0          
O        O      0.711425000000     0.873233333333     0.814800000000     0          
O        O      0.545900000000     0.863666666667     0.793200000000     0          
O        O      0.579000000000     0.852533333333     0.705800000000     0          
O        O      0.522000000000     0.916666666667     0.848100000000     0          
O        O      0.571875000000     0.916666666667     0.739300000000     0          
O        O      0.743825000000     0.792733333333     0.526800000000     0          
O        O      0.607250000000     0.813766666667     0.632800000000     0          
O        O      0.663575000000     0.793433333333     0.564800000000     0          
O        O      0.579100000000     0.803000000000     0.543200000000     0          
O        O      0.546000000000     0.814133333333     0.955800000000     0          
O        O      0.603000000000     0.750000000000     0.598100000000     0          
O        O      0.553125000000     0.750000000000     0.989300000000     0          
O        O      0.506175000000     0.959400000000     0.973200000000     0          
O        O      0.642750000000     0.980433333333     0.867200000000     0          
O        O      0.586425000000     0.960100000000     0.935200000000     0          
O        O      0.670900000000     0.969666666667     0.956800000000     0          
O        O      0.704000000000     0.980800000000     0.544200000000     0          
O        O      0.647000000000     0.916666666667     0.901900000000     0          
O        O      0.696875000000     0.916666666667     0.510700000000     0          
O        O      0.618825000000     0.707266666667     0.723200000000     0          
O        O      0.732250000000     0.686233333333     0.617200000000     0          
O        O      0.538575000000     0.706566666667     0.685200000000     0          
O        O      0.704100000000     0.697000000000     0.706800000000     0          
O        O      0.671000000000     0.685866666667     0.794200000000     0          
O        O      0.728000000000     0.750000000000     0.651900000000     0          
O        O      0.678125000000     0.750000000000     0.760700000000     0          
O        O      0.618825000000     0.792733333333     0.723200000000     0          
O        O      0.732250000000     0.813766666667     0.617200000000     0          
O        O      0.538575000000     0.793433333333     0.685200000000     0          
O        O      0.704100000000     0.803000000000     0.706800000000     0          
O        O      0.671000000000     0.814133333333     0.794200000000     0          
O        O      0.506175000000     0.873933333333     0.973200000000     0          
O        O      0.642750000000     0.852900000000     0.867200000000     0          
O        O      0.586425000000     0.873233333333     0.935200000000     0          
O        O      0.670900000000     0.863666666667     0.956800000000     0          
O        O      0.704000000000     0.852533333333     0.544200000000     0          
O        O      0.743825000000     0.707266666667     0.526800000000     0          
O        O      0.607250000000     0.686233333333     0.632800000000     0          
O        O      0.663575000000     0.706566666667     0.564800000000     0          
O        O      0.579100000000     0.697000000000     0.543200000000     0          
O        O      0.546000000000     0.685866666667     0.955800000000     0          
O        O      0.631175000000     0.959400000000     0.776800000000     0          
O        O      0.517750000000     0.980433333333     0.882800000000     0          
O        O      0.711425000000     0.960100000000     0.814800000000     0          
O        O      0.545900000000     0.969666666667     0.793200000000     0          
O        O      0.579000000000     0.980800000000     0.705800000000     0          
O        O      0.881175000000     0.207266666667     0.276800000000     0          
O        O      0.767750000000     0.186233333333     0.382800000000     0          
O        O      0.961425000000     0.206566666667     0.314800000000     0          
O        O      0.795900000000     0.197000000000     0.293200000000     0          
O        O      0.829000000000     0.185866666667     0.205800000000     0          
O        O      0.772000000000     0.250000000000     0.348100000000     0          
O        O      0.821875000000     0.250000000000     0.239300000000     0          
O        O      0.993825000000     0.126066666667     0.026800000000     0          
O        O      0.857250000000     0.147100000000     0.132800000000     0          
O        O      0.913575000000     0.126766666667     0.064800000000     0          
O        O      0.829100000000     0.136333333333     0.043200000000     0          
O        O      0.796000000000     0.147466666667     0.455800000000     0          
O        O      0.853000000000     0.083333333333     0.098100000000     0          
O        O      0.803125000000     0.083333333333     0.489300000000     0          
O        O      0.756175000000     0.292733333333     0.473200000000     0          
O        O      0.892750000000     0.313766666667     0.367200000000     0          
O        O      0.836425000000     0.293433333333     0.435200000000     0          
O        O      0.920900000000     0.303000000000     0.456800000000     0          
O        O      0.954000000000     0.314133333333     0.044200000000     0          
O        O      0.897000000000     0.250000000000     0.401900000000     0          
O        O      0.946875000000     0.250000000000     0.010700000000     0          
O        O      0.868825000000     0.040600000000     0.223200000000     0          
O        O      0.982250000000     0.019566666667     0.117200000000     0          
O        O      0.788575000000     0.039900000000     0.185200000000     0          
O        O      0.954100000000     0.030333333333     0.206800000000     0          
O        O      0.921000000000     0.019200000000     0.294200000000     0          
O        O      0.978000000000     0.083333333333     0.151900000000     0          
O        O      0.928125000000     0.083333333333     0.260700000000     0          
O        O      0.868825000000     0.126066666667     0.223200000000     0          
O        O      0.982250000000     0.147100000000     0.117200000000     0          
O        O      0.788575000000     0.126766666667     0.185200000000     0          
O        O      0.954100000000     0.136333333333     0.206800000000     0          
O        O      0.921000000000     0.147466666667     0.294200000000     0          
O        O      0.756175000000     0.207266666667     0.473200000000     0          
O        O      0.892750000000     0.186233333333     0.367200000000     0          
O        O      0.836425000000     0.206566666667     0.435200000000     0          
O        O      0.920900000000     0.197000000000     0.456800000000     0          
O        O      0.954000000000     0.185866666667     0.044200000000     0          
O        O      0.993825000000     0.040600000000     0.026800000000     0          
O        O      0.857250000000     0.019566666667     0.132800000000     0          
O        O      0.913575000000     0.039900000000     0.064800000000     0          
O        O      0.829100000000     0.030333333333     0.043200000000     0          
O        O      0.796000000000     0.019200000000     0.455800000000     0          
O        O      0.881175000000     0.292733333333     0.276800000000     0          
O        O      0.767750000000     0.313766666667     0.382800000000     0          
O        O      0.961425000000     0.293433333333     0.314800000000     0          
O        O      0.795900000000     0.303000000000     0.293200000000     0          
O        O      0.829000000000     0.314133333333     0.205800000000     0          
O        O      0.881175000000     0.207266666667     0.776800000000     0          
O        O      0.767750000000     0.186233333333     0.882800000000     0          
O        O      0.961425000000     0.206566666667     0.814800000000     0          
O        O      0.795900000000     0.197000000000     0.793200000000     0          
O        O      0.829000000000     0.185866666667     0.705800000000     0          
O        O      0.772000000000     0.250000000000     0.848100000000     0          
O        O      0.821875000000     0.250000000000     0.739300000000     0          
O        O      0.993825000000     0.126066666667     0.526800000000     0          
O        O      0.857250000000     0.147100000000     0.632800000000     0          
O        O      0.913575000000     0.126766666667     0.564800000000     0          
O        O      0.829100000000     0.136333333333     0.543200000000     0          
O        O      0.796000000000     0.147466666667     0.955800000000     0          
O        O      0.853000000000     0.083333333333     0.598100000000     0          
O        O      0.803125000000     0.083333333333     0.989300000000     0          
O        O      0.756175000000     0.292733333333     0.973200000000     0          
O        O      0.892750000000     0.313766666667     0.867200000000     0          
O        O      0.836425000000     0.293433333333     0.935200000000     0          
O        O      0.920900000000     0.303000000000     0.956800000000     0          
O        O      0.954000000000     0.314133333333     0.544200000000     0          
O        O      0.897000000000     0.250000000000     0.901900000000     0          
O        O      0.946875000000     0.250000000000     0.510700000000     0          
O        O      0.868825000000     0.040600000000     0.723200000000     0          
O        O      0.982250000000     0.019566666667     0.617200000000     0          
O        O      0.788575000000     0.039900000000     0.685200000000     0          
O        O      0.954100000000     0.030333333333     0.706800000000     0          
O        O      0.921000000000     0.019200000000     0.794200000000     0          
O        O      0.978000000000     0.083333333333     0.651900000000     0          
O        O      0.928125000000     0.083333333333     0.760700000000     0          
O        O      0.868825000000     0.126066666667     0.723200000000     0          
O        O      0.982250000000     0.147100000000     0.617200000000     0          
O        O      0.788575000000     0.126766666667     0.685200000000     0          
O        O      0.954100000000     0.136333333333     0.706800000000     0          
O        O      0.921000000000     0.147466666667     0.794200000000     0          
O        O      0.756175000000     0.207266666667     0.973200000000     0          
O        O      0.892750000000     0.186233333333     0.867200000000     0          
O        O      0.836425000000     0.206566666667     0.935200000000     0          
O        O      0.920900000000     0.197000000000     0.956800000000     0          
O        O      0.954000000000     0.185866666667     0.544200000000     0          
O        O      0.993825000000     0.040600000000     0.526800000000     0          
O        O      0.857250000000     0.019566666667     0.632800000000     0          
O        O      0.913575000000     0.039900000000     0.564800000000     0          
O        O      0.829100000000     0.030333333333     0.543200000000     0          
O        O      0.796000000000     0.019200000000     0.955800000000     0          
O        O      0.881175000000     0.292733333333     0.776800000000     0          
O        O      0.767750000000     0.313766666667     0.882800000000     0          
O        O      0.961425000000     0.293433333333     0.814800000000     0          
O        O      0.795900000000     0.303000000000     0.793200000000     0          
O        O      0.829000000000     0.314133333333     0.705800000000     0          
O        O      0.881175000000     0.540600000000     0.276800000000     0          
O        O      0.767750000000     0.519566666667     0.382800000000     0          
O        O      0.961425000000     0.539900000000     0.314800000000     0          
O        O      0.795900000000     0.530333333333     0.293200000000     0          
O        O      0.829000000000     0.519200000000     0.205800000000     0          
O        O      0.772000000000     0.583333333333     0.348100000000     0          
O        O      0.821875000000     0.583333333333     0.239300000000     0          
O        O      0.993825000000     0.459400000000     0.026800000000     0          
O        O      0.857250000000     0.480433333333     0.132800000000     0          
O        O      0.913575000000     0.460100000000     0.064800000000     0          
O        O      0.829100000000     0.469666666667     0.043200000000     0          
O        O      0.796000000000     0.480800000000     0.455800000000     0          
O        O      0.853000000000     0.416666666667     0.098100000000     0          
O        O      0.803125000000     0.416666666667     0.489300000000     0          
O        O      0.756175000000     0.626066666667     0.473200000000     0          
O        O      0.892750000000     0.647100000000     0.367200000000     0          
O        O      0.836425000000     0.626766666667     0.435200000000     0          
O        O      0.920900000000     0.636333333333     0.456800000000     0          
O        O      0.954000000000     0.647466666667     0.044200000000     0          
O        O      0.897000000000     0.583333333333     0.401900000000     0          
O        O      0.946875000000     0.583333333333     0.010700000000     0          
O        O      0.868825000000     0.373933333333     0.223200000000     0          
O        O      0.982250000000     0.352900000000     0.117200000000     0          
O        O      0.788575000000     0.373233333333     0.185200000000     0          
O        O      0.954100000000     0.363666666667     0.206800000000     0          
O        O      0.921000000000     0.352533333333     0.294200000000     0          
O        O      0.978000000000     0.416666666667     0.151900000000     0          
O        O      0.928125000000     0.416666666667     0.260700000000     0          
O        O      0.868825000000     0.459400000000     0.223200000000     0          
O        O      0.982250000000     0.480433333333     0.117200000000     0          
O        O      0.788575000000     0.460100000000     0.185200000000     0          
O        O      0.954100000000     0.469666666667     0.206800000000     0          
O        O      0.921000000000     0.480800000000     0.294200000000     0          
O        O      0.756175000000     0.540600000000     0.473200000000     0          
O        O      0.892750000000     0.519566666667     0.367200000000     0          
O        O      0.836425000000     0.539900000000     0.435200000000     0          
O        O      0.920900000000     0.530333333333     0.456800000000     0          
O        O      0.954000000000     0.519200000000     0.044200000000     0          
O        O      0.993825000000     0.373933333333     0.026800000000     0          
O        O      0.857250000000     0.352900000000     0.132800000000     0          
O        O      0.913575000000     0.373233333333     0.064800000000     0          
O        O      0.829100000000     0.363666666667     0.043200000000     0          
O        O      0.796000000000     0.352533333333     0.455800000000     0          
O        O      0.881175000000     0.626066666667     0.276800000000     0          
O        O      0.767750000000     0.647100000000     0.382800000000     0          
O        O      0.961425000000     0.626766666667     0.314800000000     0          
O        O      0.795900000000     0.636333333333     0.293200000000     0          
O        O      0.829000000000     0.647466666667     0.205800000000     0          
O        O      0.881175000000     0.540600000000     0.776800000000     0          
O        O      0.767750000000     0.519566666667     0.882800000000     0          
O        O      0.961425000000     0.539900000000     0.814800000000     0          
O        O      0.795900000000     0.530333333333     0.793200000000     0          
O        O      0.829000000000     0.519200000000     0.705800000000     0          
O        O      0.772000000000     0.583333333333     0.848100000000     0          
O        O      0.821875000000     0.583333333333     0.739300000000     0          
O        O      0.993825000000     0.459400000000     0.526800000000     0          
O        O      0.857250000000     0.480433333333     0.632800000000     0          
O        O      0.913575000000     0.460100000000     0.564800000000     0          
O        O      0.829100000000     0.469666666667     0.543200000000     0          
O        O      0.796000000000     0.480800000000     0.955800000000     0          
O        O      0.853000000000     0.416666666667     0.598100000000     0          
O        O      0.803125000000     0.416666666667     0.989300000000     0          
O        O      0.756175000000     0.626066666667     0.973200000000     0          
O        O      0.892750000000     0.647100000000     0.867200000000     0          
O        O      0.836425000000     0.626766666667     0.935200000000     0          
O        O      0.920900000000     0.636333333333     0.956800000000     0          
O        O      0.954000000000     0.647466666667     0.544200000000     0          
O        O      0.897000000000     0.583333333333     0.901900000000     0          
O        O      0.946875000000     0.583333333333     0.510700000000     0          
O        O      0.868825000000     0.373933333333     0.723200000000     0          
O        O      0.982250000000     0.352900000000     0.617200000000     0          
O        O      0.788575000000     0.373233333333     0.685200000000     0          
O        O      0.954100000000     0.363666666667     0.706800000000     0          
O        O      0.921000000000     0.352533333333     0.794200000000     0          
O        O      0.978000000000     0.416666666667     0.651900000000     0          
O        O      0.928125000000     0.416666666667     0.760700000000     0          
O        O      0.868825000000     0.459400000000     0.723200000000     0          
O        O      0.982250000000     0.480433333333     0.617200000000     0          
O        O      0.788575000000     0.460100000000     0.685200000000     0          
O        O      0.954100000000     0.469666666667     0.706800000000     0          
O        O      0.921000000000     0.480800000000     0.794200000000     0          
O        O      0.756175000000     0.540600000000     0.973200000000     0          
O        O      0.892750000000     0.519566666667     0.867200000000     0          
O        O      0.836425000000     0.539900000000     0.935200000000     0          
O        O      0.920900000000     0.530333333333     0.956800000000     0          
O        O      0.954000000000     0.519200000000     0.544200000000     0          
O        O      0.993825000000     0.373933333333     0.526800000000     0          
O        O      0.857250000000     0.352900000000     0.632800000000     0          
O        O      0.913575000000     0.373233333333     0.564800000000     0          
O        O      0.829100000000     0.363666666667     0.543200000000     0          
O        O      0.796000000000     0.352533333333     0.955800000000     0          
O        O      0.881175000000     0.626066666667     0.776800000000     0          
O        O      0.767750000000     0.647100000000     0.882800000000     0          
O        O      0.961425000000     0.626766666667     0.814800000000     0          
O        O      0.795900000000     0.636333333333     0.793200000000     0          
O        O      0.829000000000     0.647466666667     0.705800000000     0          
O        O      0.881175000000     0.873933333333     0.276800000000     0          
O        O      0.767750000000     0.852900000000     0.382800000000     0          
O        O      0.961425000000     0.873233333333     0.314800000000     0          
O        O      0.795900000000     0.863666666667     0.293200000000     0          
O        O      0.829000000000     0.852533333333     0.205800000000     0          
O        O      0.772000000000     0.916666666667     0.348100000000     0          
O        O      0.821875000000     0.916666666667     0.239300000000     0          
O        O      0.993825000000     0.792733333333     0.026800000000     0          
O        O      0.857250000000     0.813766666667     0.132800000000     0          
O        O      0.913575000000     0.793433333333     0.064800000000     0          
O        O      0.829100000000     0.803000000000     0.043200000000     0          
O        O      0.796000000000     0.814133333333     0.455800000000     0          
O        O      0.853000000000     0.750000000000     0.098100000000     0          
O        O      0.803125000000     0.750000000000     0.489300000000     0          
O        O      0.756175000000     0.959400000000     0.473200000000     0          
O        O      0.892750000000     0.980433333333     0.367200000000     0          
O        O      0.836425000000     0.960100000000     0.435200000000     0          
O        O      0.920900000000     0.969666666667     0.456800000000     0          
O        O      0.954000000000     0.980800000000     0.044200000000     0          
O        O      0.897000000000     0.916666666667     0.401900000000     0          
O        O      0.946875000000     0.916666666667     0.010700000000     0          
O        O      0.868825000000     0.707266666667     0.223200000000     0          
O        O      0.982250000000     0.686233333333     0.117200000000     0          
O        O      0.788575000000     0.706566666667     0.185200000000     0          
O        O      0.954100000000     0.697000000000     0.206800000000     0          
O        O      0.921000000000     0.685866666667     0.294200000000     0          
O        O      0.978000000000     0.750000000000     0.151900000000     0          
O        O      0.928125000000     0.750000000000     0.260700000000     0          
O        O      0.868825000000     0.792733333333     0.223200000000     0          
O        O      0.982250000000     0.813766666667     0.117200000000     0          
O        O      0.788575000000     0.793433333333     0.185200000000     0          
O        O      0.954100000000     0.803000000000     0.206800000000     0          
O        O      0.921000000000     0.814133333333     0.294200000000     0          
O        O      0.756175000000     0.873933333333     0.473200000000     0          
O        O      0.892750000000     0.852900000000     0.367200000000     0          
O        O      0.836425000000     0.873233333333     0.435200000000     0          
O        O      0.920900000000     0.863666666667     0.456800000000     0          
O        O      0.954000000000     0.852533333333     0.044200000000     0          
O        O      0.993825000000     0.707266666667     0.026800000000     0          
O        O      0.857250000000     0.686233333333     0.132800000000     0          
O        O      0.913575000000     0.706566666667     0.064800000000     0          
O        O      0.829100000000     0.697000000000     0.043200000000     0          
O        O      0.796000000000     0.685866666667     0.455800000000     0          
O        O      0.881175000000     0.959400000000     0.276800000000     0          
O        O      0.767750000000     0.980433333333     0.382800000000     0          
O        O      0.961425000000     0.960100000000     0.314800000000     0          
O        O      0.795900000000     0.969666666667     0.293200000000     0          
O        O      0.829000000000     0.980800000000     0.205800000000     0          
O        O      0.881175000000     0.873933333333     0.776800000000     0          
O        O      0.767750000000     0.852900000000     0.882800000000     0          
O        O      0.961425000000     0.873233333333     0.814800000000     0          
O        O      0.795900000000     0.863666666667     0.793200000000     0          
O        O      0.829000000000     0.852533333333     0.705800000000     0          
O        O      0.772000000000     0.916666666667     0.848100000000     0          
O        O      0.821875000000     0.916666666667     0.739300000000     0          
O        O      0.993825000000     0.792733333333     0.526800000000     0          
O        O      0.857250000000     0.813766666667     0.632800000000     0          
O        O      0.913575000000     0.793433333333     0.564800000000     0          
O        O      0.829100000000     0.803000000000     0.543200000000     0          
O        O      0.796000000000     0.814133333333     0.955800000000     0          
O        O      0.853000000000     0.750000000000     0.598100000000     0          
O        O      0.803125000000     0.750000000000     0.989300000000     0          
O        O      0.756175000000     0.959400000000     0.973200000000     0          
O        O      0.892750000000     0.980433333333     0.867200000000     0          
O        O      0.836425000000     0.960100000000     0.935200000000     0          
O        O      0.920900000000     0.969666666667     0.956800000000     0          
O        O      0.954000000000     0.980800000000     0.544200000000     0          
O        O      0.897000000000     0.916666666667     0.901900000000     0          
O        O      0.946875000000     0.916666666667     0.510700000000     0          
O        O      0.868825000000     0.707266666667     0.723200000000     0          
O        O      0.982250000000     0.686233333333     0.617200000000     0          
O        O      0.788575000000     0.706566666667     0.685200000000     0          
O        O      0.954100000000     0.697000000000     0.706800000000     0          
O        O      0.921000000000     0.685866666667     0.794200000000     0          
O        O      0.978000000000     0.750000000000     0.651900000000     0          
O        O      0.928125000000     0.750000000000     0.760700000000     0          
O        O      0.868825000000     0.792733333333     0.723200000000     0          
O        O      0.982250000000     0.813766666667     0.617200000000     0          
O        O      0.788575000000     0.793433333333     0.685200000000     0          
O        O      0.954100000000     0.803000000000     0.706800000000     0          
O        O      0.921000000000     0.814133333333     0.794200000000     0          
O        O      0.756175000000     0.873933333333     0.973200000000     0          
O        O      0.892750000000     0.852900000000     0.867200000000     0          
O        O      0.836425000000     0.873233333333     0.935200000000     0          
O        O      0.920900000000     0.863666666667     0.956800000000     0          
O        O      0.954000000000     0.852533333333     0.544200000000     0          
O        O      0.993825000000     0.707266666667     0.526800000000     0          
O        O      0.857250000000     0.686233333333     0.632800000000     0          
O        O      0.913575000000     0.706566666667     0.564800000000     0          
O        O      0.829100000000     0.697000000000     0.543200000000     0          
O        O      0.796000000000     0.685866666667     0.955800000000     0          
O        O      0.881175000000     0.959400000000     0.776800000000     0          
O        O      0.767750000000     0.980433333333     0.882800000000     0          
O        O      0.961425000000     0.960100000000     0.814800000000     0          
O        O      0.795900000000     0.969666666667     0.793200000000     0          
O        O      0.829000000000     0.980800000000     0.705800000000     0          


