data_zeolite

_audit_creation_method RASPA-1.0
_audit_creation_date 2021-6-7
_audit_author_name ''

_cell_length_a    27.494
_cell_length_b    48.138
_cell_length_c    36.658
_cell_angle_alpha 90
_cell_angle_beta  90
_cell_angle_gamma 90
_cell_volume      48517.1

_symmetry_cell_setting          orthorhombic
_symmetry_space_group_name_Hall 'P 1'
_symmetry_space_group_name_H-M  'P 1'
_symmetry_Int_Tables_number     1

_symmetry_equiv_pos_as_xyz 'x,y,z'

loop_
_atom_site_label
_atom_site_type_symbol
_atom_site_fract_x
_atom_site_fract_y
_atom_site_fract_z
_atom_site_charge
O        O      0.323650000000     0.250000000000     0.250000000000     0          
O        O      0.250000000000     0.227350000000     0.215400000000     0          
O        O      0.316000000000     0.254950000000     0.178150000000     0          
O        O      0.337550000000     0.206950000000     0.206650000000     0          
O        O      0.375000000000     0.271250000000     0.125000000000     0          
O        O      0.370750000000     0.298750000000     0.187450000000     0          
O        O      0.297900000000     0.300550000000     0.141550000000     0          
O        O      0.386900000000     0.325200000000     0.249450000000     0          
O        O      0.371350000000     0.353700000000     0.189300000000     0          
O        O      0.452300000000     0.325150000000     0.198500000000     0          
O        O      0.367800000000     0.342250000000     0.316000000000     0          
O        O      0.297750000000     0.338350000000     0.266700000000     0          
O        O      0.375000000000     0.377250000000     0.125000000000     0          
O        O      0.298100000000     0.384250000000     0.168300000000     0          
O        O      0.250000000000     0.376750000000     0.230100000000     0          
O        O      0.250000000000     0.377150000000     0.301850000000     0          
O        O      0.250000000000     0.338150000000     0.180350000000     0          
O        O      0.250000000000     0.340800000000     0.109700000000     0          
T        Si     0.306850000000     0.235050000000     0.212800000000     0          
T        Si     0.340350000000     0.281200000000     0.157900000000     0          
T        Si     0.394650000000     0.325800000000     0.205950000000     0          
T        Si     0.347350000000     0.324850000000     0.281800000000     0          
T        Si     0.356400000000     0.380900000000     0.166300000000     0          
T        Si     0.250000000000     0.357650000000     0.266200000000     0          
T        Si     0.250000000000     0.371300000000     0.186750000000     0          
T        Si     0.250000000000     0.319650000000     0.143700000000     0          
T        Si     0.000000000000     0.341150000000     0.184200000000     0          
O        O      0.426350000000     0.250000000000     0.000000000000     0          
O        O      0.000000000000     0.272650000000     0.465400000000     0          
O        O      0.434000000000     0.245050000000     0.428150000000     0          
O        O      0.412450000000     0.293050000000     0.456650000000     0          
O        O      0.375000000000     0.228750000000     0.375000000000     0          
O        O      0.379250000000     0.201250000000     0.437450000000     0          
O        O      0.452100000000     0.199450000000     0.391550000000     0          
O        O      0.363100000000     0.174800000000     0.499450000000     0          
O        O      0.378650000000     0.146300000000     0.439300000000     0          
O        O      0.297700000000     0.174850000000     0.448500000000     0          
O        O      0.382200000000     0.157750000000     0.066000000000     0          
O        O      0.452250000000     0.161650000000     0.016700000000     0          
O        O      0.375000000000     0.122750000000     0.375000000000     0          
O        O      0.451900000000     0.115750000000     0.418300000000     0          
O        O      0.000000000000     0.123250000000     0.480100000000     0          
O        O      0.000000000000     0.122850000000     0.051850000000     0          
O        O      0.000000000000     0.161850000000     0.430350000000     0          
O        O      0.000000000000     0.159200000000     0.359700000000     0          
T        Si     0.443150000000     0.264950000000     0.462800000000     0          
T        Si     0.409650000000     0.218800000000     0.407900000000     0          
T        Si     0.355350000000     0.174200000000     0.455950000000     0          
T        Si     0.402650000000     0.175150000000     0.031800000000     0          
T        Si     0.393600000000     0.119100000000     0.416300000000     0          
T        Si     0.000000000000     0.142350000000     0.016200000000     0          
T        Si     0.000000000000     0.128700000000     0.436750000000     0          
T        Si     0.000000000000     0.180350000000     0.393700000000     0          
T        Si     0.250000000000     0.158850000000     0.434200000000     0          
O        O      0.250000000000     0.272650000000     0.284600000000     0          
O        O      0.316000000000     0.245050000000     0.321850000000     0          
O        O      0.337550000000     0.293050000000     0.293350000000     0          
O        O      0.370750000000     0.201250000000     0.312550000000     0          
O        O      0.297900000000     0.199450000000     0.358450000000     0          
O        O      0.386900000000     0.174800000000     0.250550000000     0          
O        O      0.371350000000     0.146300000000     0.310700000000     0          
O        O      0.452300000000     0.174850000000     0.301500000000     0          
O        O      0.367800000000     0.157750000000     0.184000000000     0          
O        O      0.297750000000     0.161650000000     0.233300000000     0          
O        O      0.298100000000     0.115750000000     0.331700000000     0          
O        O      0.250000000000     0.123250000000     0.269900000000     0          
O        O      0.250000000000     0.122850000000     0.198150000000     0          
O        O      0.250000000000     0.161850000000     0.319650000000     0          
O        O      0.250000000000     0.159200000000     0.390300000000     0          
T        Si     0.306850000000     0.264950000000     0.287200000000     0          
T        Si     0.340350000000     0.218800000000     0.342100000000     0          
T        Si     0.394650000000     0.174200000000     0.294050000000     0          
T        Si     0.347350000000     0.175150000000     0.218200000000     0          
T        Si     0.356400000000     0.119100000000     0.333700000000     0          
T        Si     0.250000000000     0.142350000000     0.233800000000     0          
T        Si     0.250000000000     0.128700000000     0.313250000000     0          
T        Si     0.250000000000     0.180350000000     0.356300000000     0          
T        Si     0.000000000000     0.158850000000     0.315800000000     0          
O        O      0.000000000000     0.227350000000     0.034600000000     0          
O        O      0.434000000000     0.254950000000     0.071850000000     0          
O        O      0.412450000000     0.206950000000     0.043350000000     0          
O        O      0.379250000000     0.298750000000     0.062550000000     0          
O        O      0.452100000000     0.300550000000     0.108450000000     0          
O        O      0.363100000000     0.325200000000     0.000550000000     0          
O        O      0.378650000000     0.353700000000     0.060700000000     0          
O        O      0.297700000000     0.325150000000     0.051500000000     0          
O        O      0.382200000000     0.342250000000     0.434000000000     0          
O        O      0.452250000000     0.338350000000     0.483300000000     0          
O        O      0.451900000000     0.384250000000     0.081700000000     0          
O        O      0.000000000000     0.376750000000     0.019900000000     0          
O        O      0.000000000000     0.377150000000     0.448150000000     0          
O        O      0.000000000000     0.338150000000     0.069650000000     0          
O        O      0.000000000000     0.340800000000     0.140300000000     0          
T        Si     0.443150000000     0.235050000000     0.037200000000     0          
T        Si     0.409650000000     0.281200000000     0.092100000000     0          
T        Si     0.355350000000     0.325800000000     0.044050000000     0          
T        Si     0.402650000000     0.324850000000     0.468200000000     0          
T        Si     0.393600000000     0.380900000000     0.083700000000     0          
T        Si     0.000000000000     0.357650000000     0.483800000000     0          
T        Si     0.000000000000     0.371300000000     0.063250000000     0          
T        Si     0.000000000000     0.319650000000     0.106300000000     0          
T        Si     0.250000000000     0.341150000000     0.065800000000     0          
O        O      0.176350000000     0.250000000000     0.250000000000     0          
O        O      0.184000000000     0.245050000000     0.321850000000     0          
O        O      0.162450000000     0.293050000000     0.293350000000     0          
O        O      0.125000000000     0.228750000000     0.375000000000     0          
O        O      0.129250000000     0.201250000000     0.312550000000     0          
O        O      0.202100000000     0.199450000000     0.358450000000     0          
O        O      0.113100000000     0.174800000000     0.250550000000     0          
O        O      0.128650000000     0.146300000000     0.310700000000     0          
O        O      0.047700000000     0.174850000000     0.301500000000     0          
O        O      0.132200000000     0.157750000000     0.184000000000     0          
O        O      0.202250000000     0.161650000000     0.233300000000     0          
O        O      0.125000000000     0.122750000000     0.375000000000     0          
O        O      0.201900000000     0.115750000000     0.331700000000     0          
T        Si     0.193150000000     0.264950000000     0.287200000000     0          
T        Si     0.159650000000     0.218800000000     0.342100000000     0          
T        Si     0.105350000000     0.174200000000     0.294050000000     0          
T        Si     0.152650000000     0.175150000000     0.218200000000     0          
T        Si     0.143600000000     0.119100000000     0.333700000000     0          
O        O      0.073650000000     0.250000000000     0.000000000000     0          
O        O      0.066000000000     0.254950000000     0.071850000000     0          
O        O      0.087550000000     0.206950000000     0.043350000000     0          
O        O      0.125000000000     0.271250000000     0.125000000000     0          
O        O      0.120750000000     0.298750000000     0.062550000000     0          
O        O      0.047900000000     0.300550000000     0.108450000000     0          
O        O      0.136900000000     0.325200000000     0.000550000000     0          
O        O      0.121350000000     0.353700000000     0.060700000000     0          
O        O      0.202300000000     0.325150000000     0.051500000000     0          
O        O      0.117800000000     0.342250000000     0.434000000000     0          
O        O      0.047750000000     0.338350000000     0.483300000000     0          
O        O      0.125000000000     0.377250000000     0.125000000000     0          
O        O      0.048100000000     0.384250000000     0.081700000000     0          
T        Si     0.056850000000     0.235050000000     0.037200000000     0          
T        Si     0.090350000000     0.281200000000     0.092100000000     0          
T        Si     0.144650000000     0.325800000000     0.044050000000     0          
T        Si     0.097350000000     0.324850000000     0.468200000000     0          
T        Si     0.106400000000     0.380900000000     0.083700000000     0          
O        O      0.184000000000     0.254950000000     0.178150000000     0          
O        O      0.162450000000     0.206950000000     0.206650000000     0          
O        O      0.129250000000     0.298750000000     0.187450000000     0          
O        O      0.202100000000     0.300550000000     0.141550000000     0          
O        O      0.113100000000     0.325200000000     0.249450000000     0          
O        O      0.128650000000     0.353700000000     0.189300000000     0          
O        O      0.047700000000     0.325150000000     0.198500000000     0          
O        O      0.132200000000     0.342250000000     0.316000000000     0          
O        O      0.202250000000     0.338350000000     0.266700000000     0          
O        O      0.201900000000     0.384250000000     0.168300000000     0          
T        Si     0.193150000000     0.235050000000     0.212800000000     0          
T        Si     0.159650000000     0.281200000000     0.157900000000     0          
T        Si     0.105350000000     0.325800000000     0.205950000000     0          
T        Si     0.152650000000     0.324850000000     0.281800000000     0          
T        Si     0.143600000000     0.380900000000     0.166300000000     0          
O        O      0.066000000000     0.245050000000     0.428150000000     0          
O        O      0.087550000000     0.293050000000     0.456650000000     0          
O        O      0.120750000000     0.201250000000     0.437450000000     0          
O        O      0.047900000000     0.199450000000     0.391550000000     0          
O        O      0.136900000000     0.174800000000     0.499450000000     0          
O        O      0.121350000000     0.146300000000     0.439300000000     0          
O        O      0.202300000000     0.174850000000     0.448500000000     0          
O        O      0.117800000000     0.157750000000     0.066000000000     0          
O        O      0.047750000000     0.161650000000     0.016700000000     0          
O        O      0.048100000000     0.115750000000     0.418300000000     0          
T        Si     0.056850000000     0.264950000000     0.462800000000     0          
T        Si     0.090350000000     0.218800000000     0.407900000000     0          
T        Si     0.144650000000     0.174200000000     0.455950000000     0          
T        Si     0.097350000000     0.175150000000     0.031800000000     0          
T        Si     0.106400000000     0.119100000000     0.416300000000     0          
O        O      0.073650000000     0.000000000000     0.250000000000     0          
O        O      0.000000000000     0.477350000000     0.215400000000     0          
O        O      0.066000000000     0.004950000000     0.178150000000     0          
O        O      0.087550000000     0.456950000000     0.206650000000     0          
O        O      0.125000000000     0.021250000000     0.125000000000     0          
O        O      0.120750000000     0.048750000000     0.187450000000     0          
O        O      0.047900000000     0.050550000000     0.141550000000     0          
O        O      0.136900000000     0.075200000000     0.249450000000     0          
O        O      0.121350000000     0.103700000000     0.189300000000     0          
O        O      0.202300000000     0.075150000000     0.198500000000     0          
O        O      0.117800000000     0.092250000000     0.316000000000     0          
O        O      0.047750000000     0.088350000000     0.266700000000     0          
O        O      0.125000000000     0.127250000000     0.125000000000     0          
O        O      0.048100000000     0.134250000000     0.168300000000     0          
O        O      0.000000000000     0.126750000000     0.230100000000     0          
O        O      0.000000000000     0.127150000000     0.301850000000     0          
O        O      0.000000000000     0.088150000000     0.180350000000     0          
O        O      0.000000000000     0.090800000000     0.109700000000     0          
T        Si     0.056850000000     0.485050000000     0.212800000000     0          
T        Si     0.090350000000     0.031200000000     0.157900000000     0          
T        Si     0.144650000000     0.075800000000     0.205950000000     0          
T        Si     0.097350000000     0.074850000000     0.281800000000     0          
T        Si     0.106400000000     0.130900000000     0.166300000000     0          
T        Si     0.000000000000     0.107650000000     0.266200000000     0          
T        Si     0.000000000000     0.121300000000     0.186750000000     0          
T        Si     0.000000000000     0.069650000000     0.143700000000     0          
T        Si     0.250000000000     0.091150000000     0.184200000000     0          
O        O      0.176350000000     0.000000000000     0.000000000000     0          
O        O      0.250000000000     0.022650000000     0.465400000000     0          
O        O      0.184000000000     0.495050000000     0.428150000000     0          
O        O      0.162450000000     0.043050000000     0.456650000000     0          
O        O      0.125000000000     0.478750000000     0.375000000000     0          
O        O      0.129250000000     0.451250000000     0.437450000000     0          
O        O      0.202100000000     0.449450000000     0.391550000000     0          
O        O      0.113100000000     0.424800000000     0.499450000000     0          
O        O      0.128650000000     0.396300000000     0.439300000000     0          
O        O      0.047700000000     0.424850000000     0.448500000000     0          
O        O      0.132200000000     0.407750000000     0.066000000000     0          
O        O      0.202250000000     0.411650000000     0.016700000000     0          
O        O      0.125000000000     0.372750000000     0.375000000000     0          
O        O      0.201900000000     0.365750000000     0.418300000000     0          
O        O      0.250000000000     0.373250000000     0.480100000000     0          
O        O      0.250000000000     0.372850000000     0.051850000000     0          
O        O      0.250000000000     0.411850000000     0.430350000000     0          
O        O      0.250000000000     0.409200000000     0.359700000000     0          
T        Si     0.193150000000     0.014950000000     0.462800000000     0          
T        Si     0.159650000000     0.468800000000     0.407900000000     0          
T        Si     0.105350000000     0.424200000000     0.455950000000     0          
T        Si     0.152650000000     0.425150000000     0.031800000000     0          
T        Si     0.143600000000     0.369100000000     0.416300000000     0          
T        Si     0.250000000000     0.392350000000     0.016200000000     0          
T        Si     0.250000000000     0.378700000000     0.436750000000     0          
T        Si     0.250000000000     0.430350000000     0.393700000000     0          
T        Si     0.000000000000     0.408850000000     0.434200000000     0          
O        O      0.000000000000     0.022650000000     0.284600000000     0          
O        O      0.066000000000     0.495050000000     0.321850000000     0          
O        O      0.087550000000     0.043050000000     0.293350000000     0          
O        O      0.120750000000     0.451250000000     0.312550000000     0          
O        O      0.047900000000     0.449450000000     0.358450000000     0          
O        O      0.136900000000     0.424800000000     0.250550000000     0          
O        O      0.121350000000     0.396300000000     0.310700000000     0          
O        O      0.202300000000     0.424850000000     0.301500000000     0          
O        O      0.117800000000     0.407750000000     0.184000000000     0          
O        O      0.047750000000     0.411650000000     0.233300000000     0          
O        O      0.048100000000     0.365750000000     0.331700000000     0          
O        O      0.000000000000     0.373250000000     0.269900000000     0          
O        O      0.000000000000     0.372850000000     0.198150000000     0          
O        O      0.000000000000     0.411850000000     0.319650000000     0          
O        O      0.000000000000     0.409200000000     0.390300000000     0          
T        Si     0.056850000000     0.014950000000     0.287200000000     0          
T        Si     0.090350000000     0.468800000000     0.342100000000     0          
T        Si     0.144650000000     0.424200000000     0.294050000000     0          
T        Si     0.097350000000     0.425150000000     0.218200000000     0          
T        Si     0.106400000000     0.369100000000     0.333700000000     0          
T        Si     0.000000000000     0.392350000000     0.233800000000     0          
T        Si     0.000000000000     0.378700000000     0.313250000000     0          
T        Si     0.000000000000     0.430350000000     0.356300000000     0          
T        Si     0.250000000000     0.408850000000     0.315800000000     0          
O        O      0.250000000000     0.477350000000     0.034600000000     0          
O        O      0.184000000000     0.004950000000     0.071850000000     0          
O        O      0.162450000000     0.456950000000     0.043350000000     0          
O        O      0.129250000000     0.048750000000     0.062550000000     0          
O        O      0.202100000000     0.050550000000     0.108450000000     0          
O        O      0.113100000000     0.075200000000     0.000550000000     0          
O        O      0.128650000000     0.103700000000     0.060700000000     0          
O        O      0.047700000000     0.075150000000     0.051500000000     0          
O        O      0.132200000000     0.092250000000     0.434000000000     0          
O        O      0.202250000000     0.088350000000     0.483300000000     0          
O        O      0.201900000000     0.134250000000     0.081700000000     0          
O        O      0.250000000000     0.126750000000     0.019900000000     0          
O        O      0.250000000000     0.127150000000     0.448150000000     0          
O        O      0.250000000000     0.088150000000     0.069650000000     0          
O        O      0.250000000000     0.090800000000     0.140300000000     0          
T        Si     0.193150000000     0.485050000000     0.037200000000     0          
T        Si     0.159650000000     0.031200000000     0.092100000000     0          
T        Si     0.105350000000     0.075800000000     0.044050000000     0          
T        Si     0.152650000000     0.074850000000     0.468200000000     0          
T        Si     0.143600000000     0.130900000000     0.083700000000     0          
T        Si     0.250000000000     0.107650000000     0.483800000000     0          
T        Si     0.250000000000     0.121300000000     0.063250000000     0          
T        Si     0.250000000000     0.069650000000     0.106300000000     0          
T        Si     0.000000000000     0.091150000000     0.065800000000     0          
O        O      0.426350000000     0.000000000000     0.250000000000     0          
O        O      0.434000000000     0.495050000000     0.321850000000     0          
O        O      0.412450000000     0.043050000000     0.293350000000     0          
O        O      0.375000000000     0.478750000000     0.375000000000     0          
O        O      0.379250000000     0.451250000000     0.312550000000     0          
O        O      0.452100000000     0.449450000000     0.358450000000     0          
O        O      0.363100000000     0.424800000000     0.250550000000     0          
O        O      0.378650000000     0.396300000000     0.310700000000     0          
O        O      0.297700000000     0.424850000000     0.301500000000     0          
O        O      0.382200000000     0.407750000000     0.184000000000     0          
O        O      0.452250000000     0.411650000000     0.233300000000     0          
O        O      0.375000000000     0.372750000000     0.375000000000     0          
O        O      0.451900000000     0.365750000000     0.331700000000     0          
T        Si     0.443150000000     0.014950000000     0.287200000000     0          
T        Si     0.409650000000     0.468800000000     0.342100000000     0          
T        Si     0.355350000000     0.424200000000     0.294050000000     0          
T        Si     0.402650000000     0.425150000000     0.218200000000     0          
T        Si     0.393600000000     0.369100000000     0.333700000000     0          
O        O      0.323650000000     0.000000000000     0.000000000000     0          
O        O      0.316000000000     0.004950000000     0.071850000000     0          
O        O      0.337550000000     0.456950000000     0.043350000000     0          
O        O      0.375000000000     0.021250000000     0.125000000000     0          
O        O      0.370750000000     0.048750000000     0.062550000000     0          
O        O      0.297900000000     0.050550000000     0.108450000000     0          
O        O      0.386900000000     0.075200000000     0.000550000000     0          
O        O      0.371350000000     0.103700000000     0.060700000000     0          
O        O      0.452300000000     0.075150000000     0.051500000000     0          
O        O      0.367800000000     0.092250000000     0.434000000000     0          
O        O      0.297750000000     0.088350000000     0.483300000000     0          
O        O      0.375000000000     0.127250000000     0.125000000000     0          
O        O      0.298100000000     0.134250000000     0.081700000000     0          
T        Si     0.306850000000     0.485050000000     0.037200000000     0          
T        Si     0.340350000000     0.031200000000     0.092100000000     0          
T        Si     0.394650000000     0.075800000000     0.044050000000     0          
T        Si     0.347350000000     0.074850000000     0.468200000000     0          
T        Si     0.356400000000     0.130900000000     0.083700000000     0          
O        O      0.434000000000     0.004950000000     0.178150000000     0          
O        O      0.412450000000     0.456950000000     0.206650000000     0          
O        O      0.379250000000     0.048750000000     0.187450000000     0          
O        O      0.452100000000     0.050550000000     0.141550000000     0          
O        O      0.363100000000     0.075200000000     0.249450000000     0          
O        O      0.378650000000     0.103700000000     0.189300000000     0          
O        O      0.297700000000     0.075150000000     0.198500000000     0          
O        O      0.382200000000     0.092250000000     0.316000000000     0          
O        O      0.452250000000     0.088350000000     0.266700000000     0          
O        O      0.451900000000     0.134250000000     0.168300000000     0          
T        Si     0.443150000000     0.485050000000     0.212800000000     0          
T        Si     0.409650000000     0.031200000000     0.157900000000     0          
T        Si     0.355350000000     0.075800000000     0.205950000000     0          
T        Si     0.402650000000     0.074850000000     0.281800000000     0          
T        Si     0.393600000000     0.130900000000     0.166300000000     0          
O        O      0.316000000000     0.495050000000     0.428150000000     0          
O        O      0.337550000000     0.043050000000     0.456650000000     0          
O        O      0.370750000000     0.451250000000     0.437450000000     0          
O        O      0.297900000000     0.449450000000     0.391550000000     0          
O        O      0.386900000000     0.424800000000     0.499450000000     0          
O        O      0.371350000000     0.396300000000     0.439300000000     0          
O        O      0.452300000000     0.424850000000     0.448500000000     0          
O        O      0.367800000000     0.407750000000     0.066000000000     0          
O        O      0.297750000000     0.411650000000     0.016700000000     0          
O        O      0.298100000000     0.365750000000     0.418300000000     0          
T        Si     0.306850000000     0.014950000000     0.462800000000     0          
T        Si     0.340350000000     0.468800000000     0.407900000000     0          
T        Si     0.394650000000     0.424200000000     0.455950000000     0          
T        Si     0.347350000000     0.425150000000     0.031800000000     0          
T        Si     0.356400000000     0.369100000000     0.416300000000     0          
O        O      0.323650000000     0.250000000000     0.750000000000     0          
O        O      0.250000000000     0.227350000000     0.715400000000     0          
O        O      0.316000000000     0.254950000000     0.678150000000     0          
O        O      0.337550000000     0.206950000000     0.706650000000     0          
O        O      0.375000000000     0.271250000000     0.625000000000     0          
O        O      0.370750000000     0.298750000000     0.687450000000     0          
O        O      0.297900000000     0.300550000000     0.641550000000     0          
O        O      0.386900000000     0.325200000000     0.749450000000     0          
O        O      0.371350000000     0.353700000000     0.689300000000     0          
O        O      0.452300000000     0.325150000000     0.698500000000     0          
O        O      0.367800000000     0.342250000000     0.816000000000     0          
O        O      0.297750000000     0.338350000000     0.766700000000     0          
O        O      0.375000000000     0.377250000000     0.625000000000     0          
O        O      0.298100000000     0.384250000000     0.668300000000     0          
O        O      0.250000000000     0.376750000000     0.730100000000     0          
O        O      0.250000000000     0.377150000000     0.801850000000     0          
O        O      0.250000000000     0.338150000000     0.680350000000     0          
O        O      0.250000000000     0.340800000000     0.609700000000     0          
T        Si     0.306850000000     0.235050000000     0.712800000000     0          
T        Si     0.340350000000     0.281200000000     0.657900000000     0          
T        Si     0.394650000000     0.325800000000     0.705950000000     0          
T        Si     0.347350000000     0.324850000000     0.781800000000     0          
T        Si     0.356400000000     0.380900000000     0.666300000000     0          
T        Si     0.250000000000     0.357650000000     0.766200000000     0          
T        Si     0.250000000000     0.371300000000     0.686750000000     0          
T        Si     0.250000000000     0.319650000000     0.643700000000     0          
T        Si     0.000000000000     0.341150000000     0.684200000000     0          
O        O      0.426350000000     0.250000000000     0.500000000000     0          
O        O      0.000000000000     0.272650000000     0.965400000000     0          
O        O      0.434000000000     0.245050000000     0.928150000000     0          
O        O      0.412450000000     0.293050000000     0.956650000000     0          
O        O      0.375000000000     0.228750000000     0.875000000000     0          
O        O      0.379250000000     0.201250000000     0.937450000000     0          
O        O      0.452100000000     0.199450000000     0.891550000000     0          
O        O      0.363100000000     0.174800000000     0.999450000000     0          
O        O      0.378650000000     0.146300000000     0.939300000000     0          
O        O      0.297700000000     0.174850000000     0.948500000000     0          
O        O      0.382200000000     0.157750000000     0.566000000000     0          
O        O      0.452250000000     0.161650000000     0.516700000000     0          
O        O      0.375000000000     0.122750000000     0.875000000000     0          
O        O      0.451900000000     0.115750000000     0.918300000000     0          
O        O      0.000000000000     0.123250000000     0.980100000000     0          
O        O      0.000000000000     0.122850000000     0.551850000000     0          
O        O      0.000000000000     0.161850000000     0.930350000000     0          
O        O      0.000000000000     0.159200000000     0.859700000000     0          
T        Si     0.443150000000     0.264950000000     0.962800000000     0          
T        Si     0.409650000000     0.218800000000     0.907900000000     0          
T        Si     0.355350000000     0.174200000000     0.955950000000     0          
T        Si     0.402650000000     0.175150000000     0.531800000000     0          
T        Si     0.393600000000     0.119100000000     0.916300000000     0          
T        Si     0.000000000000     0.142350000000     0.516200000000     0          
T        Si     0.000000000000     0.128700000000     0.936750000000     0          
T        Si     0.000000000000     0.180350000000     0.893700000000     0          
T        Si     0.250000000000     0.158850000000     0.934200000000     0          
O        O      0.250000000000     0.272650000000     0.784600000000     0          
O        O      0.316000000000     0.245050000000     0.821850000000     0          
O        O      0.337550000000     0.293050000000     0.793350000000     0          
O        O      0.370750000000     0.201250000000     0.812550000000     0          
O        O      0.297900000000     0.199450000000     0.858450000000     0          
O        O      0.386900000000     0.174800000000     0.750550000000     0          
O        O      0.371350000000     0.146300000000     0.810700000000     0          
O        O      0.452300000000     0.174850000000     0.801500000000     0          
O        O      0.367800000000     0.157750000000     0.684000000000     0          
O        O      0.297750000000     0.161650000000     0.733300000000     0          
O        O      0.298100000000     0.115750000000     0.831700000000     0          
O        O      0.250000000000     0.123250000000     0.769900000000     0          
O        O      0.250000000000     0.122850000000     0.698150000000     0          
O        O      0.250000000000     0.161850000000     0.819650000000     0          
O        O      0.250000000000     0.159200000000     0.890300000000     0          
T        Si     0.306850000000     0.264950000000     0.787200000000     0          
T        Si     0.340350000000     0.218800000000     0.842100000000     0          
T        Si     0.394650000000     0.174200000000     0.794050000000     0          
T        Si     0.347350000000     0.175150000000     0.718200000000     0          
T        Si     0.356400000000     0.119100000000     0.833700000000     0          
T        Si     0.250000000000     0.142350000000     0.733800000000     0          
T        Si     0.250000000000     0.128700000000     0.813250000000     0          
T        Si     0.250000000000     0.180350000000     0.856300000000     0          
T        Si     0.000000000000     0.158850000000     0.815800000000     0          
O        O      0.000000000000     0.227350000000     0.534600000000     0          
O        O      0.434000000000     0.254950000000     0.571850000000     0          
O        O      0.412450000000     0.206950000000     0.543350000000     0          
O        O      0.379250000000     0.298750000000     0.562550000000     0          
O        O      0.452100000000     0.300550000000     0.608450000000     0          
O        O      0.363100000000     0.325200000000     0.500550000000     0          
O        O      0.378650000000     0.353700000000     0.560700000000     0          
O        O      0.297700000000     0.325150000000     0.551500000000     0          
O        O      0.382200000000     0.342250000000     0.934000000000     0          
O        O      0.452250000000     0.338350000000     0.983300000000     0          
O        O      0.451900000000     0.384250000000     0.581700000000     0          
O        O      0.000000000000     0.376750000000     0.519900000000     0          
O        O      0.000000000000     0.377150000000     0.948150000000     0          
O        O      0.000000000000     0.338150000000     0.569650000000     0          
O        O      0.000000000000     0.340800000000     0.640300000000     0          
T        Si     0.443150000000     0.235050000000     0.537200000000     0          
T        Si     0.409650000000     0.281200000000     0.592100000000     0          
T        Si     0.355350000000     0.325800000000     0.544050000000     0          
T        Si     0.402650000000     0.324850000000     0.968200000000     0          
T        Si     0.393600000000     0.380900000000     0.583700000000     0          
T        Si     0.000000000000     0.357650000000     0.983800000000     0          
T        Si     0.000000000000     0.371300000000     0.563250000000     0          
T        Si     0.000000000000     0.319650000000     0.606300000000     0          
T        Si     0.250000000000     0.341150000000     0.565800000000     0          
O        O      0.176350000000     0.250000000000     0.750000000000     0          
O        O      0.184000000000     0.245050000000     0.821850000000     0          
O        O      0.162450000000     0.293050000000     0.793350000000     0          
O        O      0.125000000000     0.228750000000     0.875000000000     0          
O        O      0.129250000000     0.201250000000     0.812550000000     0          
O        O      0.202100000000     0.199450000000     0.858450000000     0          
O        O      0.113100000000     0.174800000000     0.750550000000     0          
O        O      0.128650000000     0.146300000000     0.810700000000     0          
O        O      0.047700000000     0.174850000000     0.801500000000     0          
O        O      0.132200000000     0.157750000000     0.684000000000     0          
O        O      0.202250000000     0.161650000000     0.733300000000     0          
O        O      0.125000000000     0.122750000000     0.875000000000     0          
O        O      0.201900000000     0.115750000000     0.831700000000     0          
T        Si     0.193150000000     0.264950000000     0.787200000000     0          
T        Si     0.159650000000     0.218800000000     0.842100000000     0          
T        Si     0.105350000000     0.174200000000     0.794050000000     0          
T        Si     0.152650000000     0.175150000000     0.718200000000     0          
T        Si     0.143600000000     0.119100000000     0.833700000000     0          
O        O      0.073650000000     0.250000000000     0.500000000000     0          
O        O      0.066000000000     0.254950000000     0.571850000000     0          
O        O      0.087550000000     0.206950000000     0.543350000000     0          
O        O      0.125000000000     0.271250000000     0.625000000000     0          
O        O      0.120750000000     0.298750000000     0.562550000000     0          
O        O      0.047900000000     0.300550000000     0.608450000000     0          
O        O      0.136900000000     0.325200000000     0.500550000000     0          
O        O      0.121350000000     0.353700000000     0.560700000000     0          
O        O      0.202300000000     0.325150000000     0.551500000000     0          
O        O      0.117800000000     0.342250000000     0.934000000000     0          
O        O      0.047750000000     0.338350000000     0.983300000000     0          
O        O      0.125000000000     0.377250000000     0.625000000000     0          
O        O      0.048100000000     0.384250000000     0.581700000000     0          
T        Si     0.056850000000     0.235050000000     0.537200000000     0          
T        Si     0.090350000000     0.281200000000     0.592100000000     0          
T        Si     0.144650000000     0.325800000000     0.544050000000     0          
T        Si     0.097350000000     0.324850000000     0.968200000000     0          
T        Si     0.106400000000     0.380900000000     0.583700000000     0          
O        O      0.184000000000     0.254950000000     0.678150000000     0          
O        O      0.162450000000     0.206950000000     0.706650000000     0          
O        O      0.129250000000     0.298750000000     0.687450000000     0          
O        O      0.202100000000     0.300550000000     0.641550000000     0          
O        O      0.113100000000     0.325200000000     0.749450000000     0          
O        O      0.128650000000     0.353700000000     0.689300000000     0          
O        O      0.047700000000     0.325150000000     0.698500000000     0          
O        O      0.132200000000     0.342250000000     0.816000000000     0          
O        O      0.202250000000     0.338350000000     0.766700000000     0          
O        O      0.201900000000     0.384250000000     0.668300000000     0          
T        Si     0.193150000000     0.235050000000     0.712800000000     0          
T        Si     0.159650000000     0.281200000000     0.657900000000     0          
T        Si     0.105350000000     0.325800000000     0.705950000000     0          
T        Si     0.152650000000     0.324850000000     0.781800000000     0          
T        Si     0.143600000000     0.380900000000     0.666300000000     0          
O        O      0.066000000000     0.245050000000     0.928150000000     0          
O        O      0.087550000000     0.293050000000     0.956650000000     0          
O        O      0.120750000000     0.201250000000     0.937450000000     0          
O        O      0.047900000000     0.199450000000     0.891550000000     0          
O        O      0.136900000000     0.174800000000     0.999450000000     0          
O        O      0.121350000000     0.146300000000     0.939300000000     0          
O        O      0.202300000000     0.174850000000     0.948500000000     0          
O        O      0.117800000000     0.157750000000     0.566000000000     0          
O        O      0.047750000000     0.161650000000     0.516700000000     0          
O        O      0.048100000000     0.115750000000     0.918300000000     0          
T        Si     0.056850000000     0.264950000000     0.962800000000     0          
T        Si     0.090350000000     0.218800000000     0.907900000000     0          
T        Si     0.144650000000     0.174200000000     0.955950000000     0          
T        Si     0.097350000000     0.175150000000     0.531800000000     0          
T        Si     0.106400000000     0.119100000000     0.916300000000     0          
O        O      0.073650000000     0.000000000000     0.750000000000     0          
O        O      0.000000000000     0.477350000000     0.715400000000     0          
O        O      0.066000000000     0.004950000000     0.678150000000     0          
O        O      0.087550000000     0.456950000000     0.706650000000     0          
O        O      0.125000000000     0.021250000000     0.625000000000     0          
O        O      0.120750000000     0.048750000000     0.687450000000     0          
O        O      0.047900000000     0.050550000000     0.641550000000     0          
O        O      0.136900000000     0.075200000000     0.749450000000     0          
O        O      0.121350000000     0.103700000000     0.689300000000     0          
O        O      0.202300000000     0.075150000000     0.698500000000     0          
O        O      0.117800000000     0.092250000000     0.816000000000     0          
O        O      0.047750000000     0.088350000000     0.766700000000     0          
O        O      0.125000000000     0.127250000000     0.625000000000     0          
O        O      0.048100000000     0.134250000000     0.668300000000     0          
O        O      0.000000000000     0.126750000000     0.730100000000     0          
O        O      0.000000000000     0.127150000000     0.801850000000     0          
O        O      0.000000000000     0.088150000000     0.680350000000     0          
O        O      0.000000000000     0.090800000000     0.609700000000     0          
T        Si     0.056850000000     0.485050000000     0.712800000000     0          
T        Si     0.090350000000     0.031200000000     0.657900000000     0          
T        Si     0.144650000000     0.075800000000     0.705950000000     0          
T        Si     0.097350000000     0.074850000000     0.781800000000     0          
T        Si     0.106400000000     0.130900000000     0.666300000000     0          
T        Si     0.000000000000     0.107650000000     0.766200000000     0          
T        Si     0.000000000000     0.121300000000     0.686750000000     0          
T        Si     0.000000000000     0.069650000000     0.643700000000     0          
T        Si     0.250000000000     0.091150000000     0.684200000000     0          
O        O      0.176350000000     0.000000000000     0.500000000000     0          
O        O      0.250000000000     0.022650000000     0.965400000000     0          
O        O      0.184000000000     0.495050000000     0.928150000000     0          
O        O      0.162450000000     0.043050000000     0.956650000000     0          
O        O      0.125000000000     0.478750000000     0.875000000000     0          
O        O      0.129250000000     0.451250000000     0.937450000000     0          
O        O      0.202100000000     0.449450000000     0.891550000000     0          
O        O      0.113100000000     0.424800000000     0.999450000000     0          
O        O      0.128650000000     0.396300000000     0.939300000000     0          
O        O      0.047700000000     0.424850000000     0.948500000000     0          
O        O      0.132200000000     0.407750000000     0.566000000000     0          
O        O      0.202250000000     0.411650000000     0.516700000000     0          
O        O      0.125000000000     0.372750000000     0.875000000000     0          
O        O      0.201900000000     0.365750000000     0.918300000000     0          
O        O      0.250000000000     0.373250000000     0.980100000000     0          
O        O      0.250000000000     0.372850000000     0.551850000000     0          
O        O      0.250000000000     0.411850000000     0.930350000000     0          
O        O      0.250000000000     0.409200000000     0.859700000000     0          
T        Si     0.193150000000     0.014950000000     0.962800000000     0          
T        Si     0.159650000000     0.468800000000     0.907900000000     0          
T        Si     0.105350000000     0.424200000000     0.955950000000     0          
T        Si     0.152650000000     0.425150000000     0.531800000000     0          
T        Si     0.143600000000     0.369100000000     0.916300000000     0          
T        Si     0.250000000000     0.392350000000     0.516200000000     0          
T        Si     0.250000000000     0.378700000000     0.936750000000     0          
T        Si     0.250000000000     0.430350000000     0.893700000000     0          
T        Si     0.000000000000     0.408850000000     0.934200000000     0          
O        O      0.000000000000     0.022650000000     0.784600000000     0          
O        O      0.066000000000     0.495050000000     0.821850000000     0          
O        O      0.087550000000     0.043050000000     0.793350000000     0          
O        O      0.120750000000     0.451250000000     0.812550000000     0          
O        O      0.047900000000     0.449450000000     0.858450000000     0          
O        O      0.136900000000     0.424800000000     0.750550000000     0          
O        O      0.121350000000     0.396300000000     0.810700000000     0          
O        O      0.202300000000     0.424850000000     0.801500000000     0          
O        O      0.117800000000     0.407750000000     0.684000000000     0          
O        O      0.047750000000     0.411650000000     0.733300000000     0          
O        O      0.048100000000     0.365750000000     0.831700000000     0          
O        O      0.000000000000     0.373250000000     0.769900000000     0          
O        O      0.000000000000     0.372850000000     0.698150000000     0          
O        O      0.000000000000     0.411850000000     0.819650000000     0          
O        O      0.000000000000     0.409200000000     0.890300000000     0          
T        Si     0.056850000000     0.014950000000     0.787200000000     0          
T        Si     0.090350000000     0.468800000000     0.842100000000     0          
T        Si     0.144650000000     0.424200000000     0.794050000000     0          
T        Si     0.097350000000     0.425150000000     0.718200000000     0          
T        Si     0.106400000000     0.369100000000     0.833700000000     0          
T        Si     0.000000000000     0.392350000000     0.733800000000     0          
T        Si     0.000000000000     0.378700000000     0.813250000000     0          
T        Si     0.000000000000     0.430350000000     0.856300000000     0          
T        Si     0.250000000000     0.408850000000     0.815800000000     0          
O        O      0.250000000000     0.477350000000     0.534600000000     0          
O        O      0.184000000000     0.004950000000     0.571850000000     0          
O        O      0.162450000000     0.456950000000     0.543350000000     0          
O        O      0.129250000000     0.048750000000     0.562550000000     0          
O        O      0.202100000000     0.050550000000     0.608450000000     0          
O        O      0.113100000000     0.075200000000     0.500550000000     0          
O        O      0.128650000000     0.103700000000     0.560700000000     0          
O        O      0.047700000000     0.075150000000     0.551500000000     0          
O        O      0.132200000000     0.092250000000     0.934000000000     0          
O        O      0.202250000000     0.088350000000     0.983300000000     0          
O        O      0.201900000000     0.134250000000     0.581700000000     0          
O        O      0.250000000000     0.126750000000     0.519900000000     0          
O        O      0.250000000000     0.127150000000     0.948150000000     0          
O        O      0.250000000000     0.088150000000     0.569650000000     0          
O        O      0.250000000000     0.090800000000     0.640300000000     0          
T        Si     0.193150000000     0.485050000000     0.537200000000     0          
T        Si     0.159650000000     0.031200000000     0.592100000000     0          
T        Si     0.105350000000     0.075800000000     0.544050000000     0          
T        Si     0.152650000000     0.074850000000     0.968200000000     0          
T        Si     0.143600000000     0.130900000000     0.583700000000     0          
T        Si     0.250000000000     0.107650000000     0.983800000000     0          
T        Si     0.250000000000     0.121300000000     0.563250000000     0          
T        Si     0.250000000000     0.069650000000     0.606300000000     0          
T        Si     0.000000000000     0.091150000000     0.565800000000     0          
O        O      0.426350000000     0.000000000000     0.750000000000     0          
O        O      0.434000000000     0.495050000000     0.821850000000     0          
O        O      0.412450000000     0.043050000000     0.793350000000     0          
O        O      0.375000000000     0.478750000000     0.875000000000     0          
O        O      0.379250000000     0.451250000000     0.812550000000     0          
O        O      0.452100000000     0.449450000000     0.858450000000     0          
O        O      0.363100000000     0.424800000000     0.750550000000     0          
O        O      0.378650000000     0.396300000000     0.810700000000     0          
O        O      0.297700000000     0.424850000000     0.801500000000     0          
O        O      0.382200000000     0.407750000000     0.684000000000     0          
O        O      0.452250000000     0.411650000000     0.733300000000     0          
O        O      0.375000000000     0.372750000000     0.875000000000     0          
O        O      0.451900000000     0.365750000000     0.831700000000     0          
T        Si     0.443150000000     0.014950000000     0.787200000000     0          
T        Si     0.409650000000     0.468800000000     0.842100000000     0          
T        Si     0.355350000000     0.424200000000     0.794050000000     0          
T        Si     0.402650000000     0.425150000000     0.718200000000     0          
T        Si     0.393600000000     0.369100000000     0.833700000000     0          
O        O      0.323650000000     0.000000000000     0.500000000000     0          
O        O      0.316000000000     0.004950000000     0.571850000000     0          
O        O      0.337550000000     0.456950000000     0.543350000000     0          
O        O      0.375000000000     0.021250000000     0.625000000000     0          
O        O      0.370750000000     0.048750000000     0.562550000000     0          
O        O      0.297900000000     0.050550000000     0.608450000000     0          
O        O      0.386900000000     0.075200000000     0.500550000000     0          
O        O      0.371350000000     0.103700000000     0.560700000000     0          
O        O      0.452300000000     0.075150000000     0.551500000000     0          
O        O      0.367800000000     0.092250000000     0.934000000000     0          
O        O      0.297750000000     0.088350000000     0.983300000000     0          
O        O      0.375000000000     0.127250000000     0.625000000000     0          
O        O      0.298100000000     0.134250000000     0.581700000000     0          
T        Si     0.306850000000     0.485050000000     0.537200000000     0          
T        Si     0.340350000000     0.031200000000     0.592100000000     0          
T        Si     0.394650000000     0.075800000000     0.544050000000     0          
T        Si     0.347350000000     0.074850000000     0.968200000000     0          
T        Si     0.356400000000     0.130900000000     0.583700000000     0          
O        O      0.434000000000     0.004950000000     0.678150000000     0          
O        O      0.412450000000     0.456950000000     0.706650000000     0          
O        O      0.379250000000     0.048750000000     0.687450000000     0          
O        O      0.452100000000     0.050550000000     0.641550000000     0          
O        O      0.363100000000     0.075200000000     0.749450000000     0          
O        O      0.378650000000     0.103700000000     0.689300000000     0          
O        O      0.297700000000     0.075150000000     0.698500000000     0          
O        O      0.382200000000     0.092250000000     0.816000000000     0          
O        O      0.452250000000     0.088350000000     0.766700000000     0          
O        O      0.451900000000     0.134250000000     0.668300000000     0          
T        Si     0.443150000000     0.485050000000     0.712800000000     0          
T        Si     0.409650000000     0.031200000000     0.657900000000     0          
T        Si     0.355350000000     0.075800000000     0.705950000000     0          
T        Si     0.402650000000     0.074850000000     0.781800000000     0          
T        Si     0.393600000000     0.130900000000     0.666300000000     0          
O        O      0.316000000000     0.495050000000     0.928150000000     0          
O        O      0.337550000000     0.043050000000     0.956650000000     0          
O        O      0.370750000000     0.451250000000     0.937450000000     0          
O        O      0.297900000000     0.449450000000     0.891550000000     0          
O        O      0.386900000000     0.424800000000     0.999450000000     0          
O        O      0.371350000000     0.396300000000     0.939300000000     0          
O        O      0.452300000000     0.424850000000     0.948500000000     0          
O        O      0.367800000000     0.407750000000     0.566000000000     0          
O        O      0.297750000000     0.411650000000     0.516700000000     0          
O        O      0.298100000000     0.365750000000     0.918300000000     0          
T        Si     0.306850000000     0.014950000000     0.962800000000     0          
T        Si     0.340350000000     0.468800000000     0.907900000000     0          
T        Si     0.394650000000     0.424200000000     0.955950000000     0          
T        Si     0.347350000000     0.425150000000     0.531800000000     0          
T        Si     0.356400000000     0.369100000000     0.916300000000     0          
O        O      0.323650000000     0.750000000000     0.250000000000     0          
O        O      0.250000000000     0.727350000000     0.215400000000     0          
O        O      0.316000000000     0.754950000000     0.178150000000     0          
O        O      0.337550000000     0.706950000000     0.206650000000     0          
O        O      0.375000000000     0.771250000000     0.125000000000     0          
O        O      0.370750000000     0.798750000000     0.187450000000     0          
O        O      0.297900000000     0.800550000000     0.141550000000     0          
O        O      0.386900000000     0.825200000000     0.249450000000     0          
O        O      0.371350000000     0.853700000000     0.189300000000     0          
O        O      0.452300000000     0.825150000000     0.198500000000     0          
O        O      0.367800000000     0.842250000000     0.316000000000     0          
O        O      0.297750000000     0.838350000000     0.266700000000     0          
O        O      0.375000000000     0.877250000000     0.125000000000     0          
O        O      0.298100000000     0.884250000000     0.168300000000     0          
O        O      0.250000000000     0.876750000000     0.230100000000     0          
O        O      0.250000000000     0.877150000000     0.301850000000     0          
O        O      0.250000000000     0.838150000000     0.180350000000     0          
O        O      0.250000000000     0.840800000000     0.109700000000     0          
T        Si     0.306850000000     0.735050000000     0.212800000000     0          
T        Si     0.340350000000     0.781200000000     0.157900000000     0          
T        Si     0.394650000000     0.825800000000     0.205950000000     0          
T        Si     0.347350000000     0.824850000000     0.281800000000     0          
T        Si     0.356400000000     0.880900000000     0.166300000000     0          
T        Si     0.250000000000     0.857650000000     0.266200000000     0          
T        Si     0.250000000000     0.871300000000     0.186750000000     0          
T        Si     0.250000000000     0.819650000000     0.143700000000     0          
T        Si     0.000000000000     0.841150000000     0.184200000000     0          
O        O      0.426350000000     0.750000000000     0.000000000000     0          
O        O      0.000000000000     0.772650000000     0.465400000000     0          
O        O      0.434000000000     0.745050000000     0.428150000000     0          
O        O      0.412450000000     0.793050000000     0.456650000000     0          
O        O      0.375000000000     0.728750000000     0.375000000000     0          
O        O      0.379250000000     0.701250000000     0.437450000000     0          
O        O      0.452100000000     0.699450000000     0.391550000000     0          
O        O      0.363100000000     0.674800000000     0.499450000000     0          
O        O      0.378650000000     0.646300000000     0.439300000000     0          
O        O      0.297700000000     0.674850000000     0.448500000000     0          
O        O      0.382200000000     0.657750000000     0.066000000000     0          
O        O      0.452250000000     0.661650000000     0.016700000000     0          
O        O      0.375000000000     0.622750000000     0.375000000000     0          
O        O      0.451900000000     0.615750000000     0.418300000000     0          
O        O      0.000000000000     0.623250000000     0.480100000000     0          
O        O      0.000000000000     0.622850000000     0.051850000000     0          
O        O      0.000000000000     0.661850000000     0.430350000000     0          
O        O      0.000000000000     0.659200000000     0.359700000000     0          
T        Si     0.443150000000     0.764950000000     0.462800000000     0          
T        Si     0.409650000000     0.718800000000     0.407900000000     0          
T        Si     0.355350000000     0.674200000000     0.455950000000     0          
T        Si     0.402650000000     0.675150000000     0.031800000000     0          
T        Si     0.393600000000     0.619100000000     0.416300000000     0          
T        Si     0.000000000000     0.642350000000     0.016200000000     0          
T        Si     0.000000000000     0.628700000000     0.436750000000     0          
T        Si     0.000000000000     0.680350000000     0.393700000000     0          
T        Si     0.250000000000     0.658850000000     0.434200000000     0          
O        O      0.250000000000     0.772650000000     0.284600000000     0          
O        O      0.316000000000     0.745050000000     0.321850000000     0          
O        O      0.337550000000     0.793050000000     0.293350000000     0          
O        O      0.370750000000     0.701250000000     0.312550000000     0          
O        O      0.297900000000     0.699450000000     0.358450000000     0          
O        O      0.386900000000     0.674800000000     0.250550000000     0          
O        O      0.371350000000     0.646300000000     0.310700000000     0          
O        O      0.452300000000     0.674850000000     0.301500000000     0          
O        O      0.367800000000     0.657750000000     0.184000000000     0          
O        O      0.297750000000     0.661650000000     0.233300000000     0          
O        O      0.298100000000     0.615750000000     0.331700000000     0          
O        O      0.250000000000     0.623250000000     0.269900000000     0          
O        O      0.250000000000     0.622850000000     0.198150000000     0          
O        O      0.250000000000     0.661850000000     0.319650000000     0          
O        O      0.250000000000     0.659200000000     0.390300000000     0          
T        Si     0.306850000000     0.764950000000     0.287200000000     0          
T        Si     0.340350000000     0.718800000000     0.342100000000     0          
T        Si     0.394650000000     0.674200000000     0.294050000000     0          
T        Si     0.347350000000     0.675150000000     0.218200000000     0          
T        Si     0.356400000000     0.619100000000     0.333700000000     0          
T        Si     0.250000000000     0.642350000000     0.233800000000     0          
T        Si     0.250000000000     0.628700000000     0.313250000000     0          
T        Si     0.250000000000     0.680350000000     0.356300000000     0          
T        Si     0.000000000000     0.658850000000     0.315800000000     0          
O        O      0.000000000000     0.727350000000     0.034600000000     0          
O        O      0.434000000000     0.754950000000     0.071850000000     0          
O        O      0.412450000000     0.706950000000     0.043350000000     0          
O        O      0.379250000000     0.798750000000     0.062550000000     0          
O        O      0.452100000000     0.800550000000     0.108450000000     0          
O        O      0.363100000000     0.825200000000     0.000550000000     0          
O        O      0.378650000000     0.853700000000     0.060700000000     0          
O        O      0.297700000000     0.825150000000     0.051500000000     0          
O        O      0.382200000000     0.842250000000     0.434000000000     0          
O        O      0.452250000000     0.838350000000     0.483300000000     0          
O        O      0.451900000000     0.884250000000     0.081700000000     0          
O        O      0.000000000000     0.876750000000     0.019900000000     0          
O        O      0.000000000000     0.877150000000     0.448150000000     0          
O        O      0.000000000000     0.838150000000     0.069650000000     0          
O        O      0.000000000000     0.840800000000     0.140300000000     0          
T        Si     0.443150000000     0.735050000000     0.037200000000     0          
T        Si     0.409650000000     0.781200000000     0.092100000000     0          
T        Si     0.355350000000     0.825800000000     0.044050000000     0          
T        Si     0.402650000000     0.824850000000     0.468200000000     0          
T        Si     0.393600000000     0.880900000000     0.083700000000     0          
T        Si     0.000000000000     0.857650000000     0.483800000000     0          
T        Si     0.000000000000     0.871300000000     0.063250000000     0          
T        Si     0.000000000000     0.819650000000     0.106300000000     0          
T        Si     0.250000000000     0.841150000000     0.065800000000     0          
O        O      0.176350000000     0.750000000000     0.250000000000     0          
O        O      0.184000000000     0.745050000000     0.321850000000     0          
O        O      0.162450000000     0.793050000000     0.293350000000     0          
O        O      0.125000000000     0.728750000000     0.375000000000     0          
O        O      0.129250000000     0.701250000000     0.312550000000     0          
O        O      0.202100000000     0.699450000000     0.358450000000     0          
O        O      0.113100000000     0.674800000000     0.250550000000     0          
O        O      0.128650000000     0.646300000000     0.310700000000     0          
O        O      0.047700000000     0.674850000000     0.301500000000     0          
O        O      0.132200000000     0.657750000000     0.184000000000     0          
O        O      0.202250000000     0.661650000000     0.233300000000     0          
O        O      0.125000000000     0.622750000000     0.375000000000     0          
O        O      0.201900000000     0.615750000000     0.331700000000     0          
T        Si     0.193150000000     0.764950000000     0.287200000000     0          
T        Si     0.159650000000     0.718800000000     0.342100000000     0          
T        Si     0.105350000000     0.674200000000     0.294050000000     0          
T        Si     0.152650000000     0.675150000000     0.218200000000     0          
T        Si     0.143600000000     0.619100000000     0.333700000000     0          
O        O      0.073650000000     0.750000000000     0.000000000000     0          
O        O      0.066000000000     0.754950000000     0.071850000000     0          
O        O      0.087550000000     0.706950000000     0.043350000000     0          
O        O      0.125000000000     0.771250000000     0.125000000000     0          
O        O      0.120750000000     0.798750000000     0.062550000000     0          
O        O      0.047900000000     0.800550000000     0.108450000000     0          
O        O      0.136900000000     0.825200000000     0.000550000000     0          
O        O      0.121350000000     0.853700000000     0.060700000000     0          
O        O      0.202300000000     0.825150000000     0.051500000000     0          
O        O      0.117800000000     0.842250000000     0.434000000000     0          
O        O      0.047750000000     0.838350000000     0.483300000000     0          
O        O      0.125000000000     0.877250000000     0.125000000000     0          
O        O      0.048100000000     0.884250000000     0.081700000000     0          
T        Si     0.056850000000     0.735050000000     0.037200000000     0          
T        Si     0.090350000000     0.781200000000     0.092100000000     0          
T        Si     0.144650000000     0.825800000000     0.044050000000     0          
T        Si     0.097350000000     0.824850000000     0.468200000000     0          
T        Si     0.106400000000     0.880900000000     0.083700000000     0          
O        O      0.184000000000     0.754950000000     0.178150000000     0          
O        O      0.162450000000     0.706950000000     0.206650000000     0          
O        O      0.129250000000     0.798750000000     0.187450000000     0          
O        O      0.202100000000     0.800550000000     0.141550000000     0          
O        O      0.113100000000     0.825200000000     0.249450000000     0          
O        O      0.128650000000     0.853700000000     0.189300000000     0          
O        O      0.047700000000     0.825150000000     0.198500000000     0          
O        O      0.132200000000     0.842250000000     0.316000000000     0          
O        O      0.202250000000     0.838350000000     0.266700000000     0          
O        O      0.201900000000     0.884250000000     0.168300000000     0          
T        Si     0.193150000000     0.735050000000     0.212800000000     0          
T        Si     0.159650000000     0.781200000000     0.157900000000     0          
T        Si     0.105350000000     0.825800000000     0.205950000000     0          
T        Si     0.152650000000     0.824850000000     0.281800000000     0          
T        Si     0.143600000000     0.880900000000     0.166300000000     0          
O        O      0.066000000000     0.745050000000     0.428150000000     0          
O        O      0.087550000000     0.793050000000     0.456650000000     0          
O        O      0.120750000000     0.701250000000     0.437450000000     0          
O        O      0.047900000000     0.699450000000     0.391550000000     0          
O        O      0.136900000000     0.674800000000     0.499450000000     0          
O        O      0.121350000000     0.646300000000     0.439300000000     0          
O        O      0.202300000000     0.674850000000     0.448500000000     0          
O        O      0.117800000000     0.657750000000     0.066000000000     0          
O        O      0.047750000000     0.661650000000     0.016700000000     0          
O        O      0.048100000000     0.615750000000     0.418300000000     0          
T        Si     0.056850000000     0.764950000000     0.462800000000     0          
T        Si     0.090350000000     0.718800000000     0.407900000000     0          
T        Si     0.144650000000     0.674200000000     0.455950000000     0          
T        Si     0.097350000000     0.675150000000     0.031800000000     0          
T        Si     0.106400000000     0.619100000000     0.416300000000     0          
O        O      0.073650000000     0.500000000000     0.250000000000     0          
O        O      0.000000000000     0.977350000000     0.215400000000     0          
O        O      0.066000000000     0.504950000000     0.178150000000     0          
O        O      0.087550000000     0.956950000000     0.206650000000     0          
O        O      0.125000000000     0.521250000000     0.125000000000     0          
O        O      0.120750000000     0.548750000000     0.187450000000     0          
O        O      0.047900000000     0.550550000000     0.141550000000     0          
O        O      0.136900000000     0.575200000000     0.249450000000     0          
O        O      0.121350000000     0.603700000000     0.189300000000     0          
O        O      0.202300000000     0.575150000000     0.198500000000     0          
O        O      0.117800000000     0.592250000000     0.316000000000     0          
O        O      0.047750000000     0.588350000000     0.266700000000     0          
O        O      0.125000000000     0.627250000000     0.125000000000     0          
O        O      0.048100000000     0.634250000000     0.168300000000     0          
O        O      0.000000000000     0.626750000000     0.230100000000     0          
O        O      0.000000000000     0.627150000000     0.301850000000     0          
O        O      0.000000000000     0.588150000000     0.180350000000     0          
O        O      0.000000000000     0.590800000000     0.109700000000     0          
T        Si     0.056850000000     0.985050000000     0.212800000000     0          
T        Si     0.090350000000     0.531200000000     0.157900000000     0          
T        Si     0.144650000000     0.575800000000     0.205950000000     0          
T        Si     0.097350000000     0.574850000000     0.281800000000     0          
T        Si     0.106400000000     0.630900000000     0.166300000000     0          
T        Si     0.000000000000     0.607650000000     0.266200000000     0          
T        Si     0.000000000000     0.621300000000     0.186750000000     0          
T        Si     0.000000000000     0.569650000000     0.143700000000     0          
T        Si     0.250000000000     0.591150000000     0.184200000000     0          
O        O      0.176350000000     0.500000000000     0.000000000000     0          
O        O      0.250000000000     0.522650000000     0.465400000000     0          
O        O      0.184000000000     0.995050000000     0.428150000000     0          
O        O      0.162450000000     0.543050000000     0.456650000000     0          
O        O      0.125000000000     0.978750000000     0.375000000000     0          
O        O      0.129250000000     0.951250000000     0.437450000000     0          
O        O      0.202100000000     0.949450000000     0.391550000000     0          
O        O      0.113100000000     0.924800000000     0.499450000000     0          
O        O      0.128650000000     0.896300000000     0.439300000000     0          
O        O      0.047700000000     0.924850000000     0.448500000000     0          
O        O      0.132200000000     0.907750000000     0.066000000000     0          
O        O      0.202250000000     0.911650000000     0.016700000000     0          
O        O      0.125000000000     0.872750000000     0.375000000000     0          
O        O      0.201900000000     0.865750000000     0.418300000000     0          
O        O      0.250000000000     0.873250000000     0.480100000000     0          
O        O      0.250000000000     0.872850000000     0.051850000000     0          
O        O      0.250000000000     0.911850000000     0.430350000000     0          
O        O      0.250000000000     0.909200000000     0.359700000000     0          
T        Si     0.193150000000     0.514950000000     0.462800000000     0          
T        Si     0.159650000000     0.968800000000     0.407900000000     0          
T        Si     0.105350000000     0.924200000000     0.455950000000     0          
T        Si     0.152650000000     0.925150000000     0.031800000000     0          
T        Si     0.143600000000     0.869100000000     0.416300000000     0          
T        Si     0.250000000000     0.892350000000     0.016200000000     0          
T        Si     0.250000000000     0.878700000000     0.436750000000     0          
T        Si     0.250000000000     0.930350000000     0.393700000000     0          
T        Si     0.000000000000     0.908850000000     0.434200000000     0          
O        O      0.000000000000     0.522650000000     0.284600000000     0          
O        O      0.066000000000     0.995050000000     0.321850000000     0          
O        O      0.087550000000     0.543050000000     0.293350000000     0          
O        O      0.120750000000     0.951250000000     0.312550000000     0          
O        O      0.047900000000     0.949450000000     0.358450000000     0          
O        O      0.136900000000     0.924800000000     0.250550000000     0          
O        O      0.121350000000     0.896300000000     0.310700000000     0          
O        O      0.202300000000     0.924850000000     0.301500000000     0          
O        O      0.117800000000     0.907750000000     0.184000000000     0          
O        O      0.047750000000     0.911650000000     0.233300000000     0          
O        O      0.048100000000     0.865750000000     0.331700000000     0          
O        O      0.000000000000     0.873250000000     0.269900000000     0          
O        O      0.000000000000     0.872850000000     0.198150000000     0          
O        O      0.000000000000     0.911850000000     0.319650000000     0          
O        O      0.000000000000     0.909200000000     0.390300000000     0          
T        Si     0.056850000000     0.514950000000     0.287200000000     0          
T        Si     0.090350000000     0.968800000000     0.342100000000     0          
T        Si     0.144650000000     0.924200000000     0.294050000000     0          
T        Si     0.097350000000     0.925150000000     0.218200000000     0          
T        Si     0.106400000000     0.869100000000     0.333700000000     0          
T        Si     0.000000000000     0.892350000000     0.233800000000     0          
T        Si     0.000000000000     0.878700000000     0.313250000000     0          
T        Si     0.000000000000     0.930350000000     0.356300000000     0          
T        Si     0.250000000000     0.908850000000     0.315800000000     0          
O        O      0.250000000000     0.977350000000     0.034600000000     0          
O        O      0.184000000000     0.504950000000     0.071850000000     0          
O        O      0.162450000000     0.956950000000     0.043350000000     0          
O        O      0.129250000000     0.548750000000     0.062550000000     0          
O        O      0.202100000000     0.550550000000     0.108450000000     0          
O        O      0.113100000000     0.575200000000     0.000550000000     0          
O        O      0.128650000000     0.603700000000     0.060700000000     0          
O        O      0.047700000000     0.575150000000     0.051500000000     0          
O        O      0.132200000000     0.592250000000     0.434000000000     0          
O        O      0.202250000000     0.588350000000     0.483300000000     0          
O        O      0.201900000000     0.634250000000     0.081700000000     0          
O        O      0.250000000000     0.626750000000     0.019900000000     0          
O        O      0.250000000000     0.627150000000     0.448150000000     0          
O        O      0.250000000000     0.588150000000     0.069650000000     0          
O        O      0.250000000000     0.590800000000     0.140300000000     0          
T        Si     0.193150000000     0.985050000000     0.037200000000     0          
T        Si     0.159650000000     0.531200000000     0.092100000000     0          
T        Si     0.105350000000     0.575800000000     0.044050000000     0          
T        Si     0.152650000000     0.574850000000     0.468200000000     0          
T        Si     0.143600000000     0.630900000000     0.083700000000     0          
T        Si     0.250000000000     0.607650000000     0.483800000000     0          
T        Si     0.250000000000     0.621300000000     0.063250000000     0          
T        Si     0.250000000000     0.569650000000     0.106300000000     0          
T        Si     0.000000000000     0.591150000000     0.065800000000     0          
O        O      0.426350000000     0.500000000000     0.250000000000     0          
O        O      0.434000000000     0.995050000000     0.321850000000     0          
O        O      0.412450000000     0.543050000000     0.293350000000     0          
O        O      0.375000000000     0.978750000000     0.375000000000     0          
O        O      0.379250000000     0.951250000000     0.312550000000     0          
O        O      0.452100000000     0.949450000000     0.358450000000     0          
O        O      0.363100000000     0.924800000000     0.250550000000     0          
O        O      0.378650000000     0.896300000000     0.310700000000     0          
O        O      0.297700000000     0.924850000000     0.301500000000     0          
O        O      0.382200000000     0.907750000000     0.184000000000     0          
O        O      0.452250000000     0.911650000000     0.233300000000     0          
O        O      0.375000000000     0.872750000000     0.375000000000     0          
O        O      0.451900000000     0.865750000000     0.331700000000     0          
T        Si     0.443150000000     0.514950000000     0.287200000000     0          
T        Si     0.409650000000     0.968800000000     0.342100000000     0          
T        Si     0.355350000000     0.924200000000     0.294050000000     0          
T        Si     0.402650000000     0.925150000000     0.218200000000     0          
T        Si     0.393600000000     0.869100000000     0.333700000000     0          
O        O      0.323650000000     0.500000000000     0.000000000000     0          
O        O      0.316000000000     0.504950000000     0.071850000000     0          
O        O      0.337550000000     0.956950000000     0.043350000000     0          
O        O      0.375000000000     0.521250000000     0.125000000000     0          
O        O      0.370750000000     0.548750000000     0.062550000000     0          
O        O      0.297900000000     0.550550000000     0.108450000000     0          
O        O      0.386900000000     0.575200000000     0.000550000000     0          
O        O      0.371350000000     0.603700000000     0.060700000000     0          
O        O      0.452300000000     0.575150000000     0.051500000000     0          
O        O      0.367800000000     0.592250000000     0.434000000000     0          
O        O      0.297750000000     0.588350000000     0.483300000000     0          
O        O      0.375000000000     0.627250000000     0.125000000000     0          
O        O      0.298100000000     0.634250000000     0.081700000000     0          
T        Si     0.306850000000     0.985050000000     0.037200000000     0          
T        Si     0.340350000000     0.531200000000     0.092100000000     0          
T        Si     0.394650000000     0.575800000000     0.044050000000     0          
T        Si     0.347350000000     0.574850000000     0.468200000000     0          
T        Si     0.356400000000     0.630900000000     0.083700000000     0          
O        O      0.434000000000     0.504950000000     0.178150000000     0          
O        O      0.412450000000     0.956950000000     0.206650000000     0          
O        O      0.379250000000     0.548750000000     0.187450000000     0          
O        O      0.452100000000     0.550550000000     0.141550000000     0          
O        O      0.363100000000     0.575200000000     0.249450000000     0          
O        O      0.378650000000     0.603700000000     0.189300000000     0          
O        O      0.297700000000     0.575150000000     0.198500000000     0          
O        O      0.382200000000     0.592250000000     0.316000000000     0          
O        O      0.452250000000     0.588350000000     0.266700000000     0          
O        O      0.451900000000     0.634250000000     0.168300000000     0          
T        Si     0.443150000000     0.985050000000     0.212800000000     0          
T        Si     0.409650000000     0.531200000000     0.157900000000     0          
T        Si     0.355350000000     0.575800000000     0.205950000000     0          
T        Si     0.402650000000     0.574850000000     0.281800000000     0          
T        Si     0.393600000000     0.630900000000     0.166300000000     0          
O        O      0.316000000000     0.995050000000     0.428150000000     0          
O        O      0.337550000000     0.543050000000     0.456650000000     0          
O        O      0.370750000000     0.951250000000     0.437450000000     0          
O        O      0.297900000000     0.949450000000     0.391550000000     0          
O        O      0.386900000000     0.924800000000     0.499450000000     0          
O        O      0.371350000000     0.896300000000     0.439300000000     0          
O        O      0.452300000000     0.924850000000     0.448500000000     0          
O        O      0.367800000000     0.907750000000     0.066000000000     0          
O        O      0.297750000000     0.911650000000     0.016700000000     0          
O        O      0.298100000000     0.865750000000     0.418300000000     0          
T        Si     0.306850000000     0.514950000000     0.462800000000     0          
T        Si     0.340350000000     0.968800000000     0.407900000000     0          
T        Si     0.394650000000     0.924200000000     0.455950000000     0          
T        Si     0.347350000000     0.925150000000     0.031800000000     0          
T        Si     0.356400000000     0.869100000000     0.416300000000     0          
O        O      0.323650000000     0.750000000000     0.750000000000     0          
O        O      0.250000000000     0.727350000000     0.715400000000     0          
O        O      0.316000000000     0.754950000000     0.678150000000     0          
O        O      0.337550000000     0.706950000000     0.706650000000     0          
O        O      0.375000000000     0.771250000000     0.625000000000     0          
O        O      0.370750000000     0.798750000000     0.687450000000     0          
O        O      0.297900000000     0.800550000000     0.641550000000     0          
O        O      0.386900000000     0.825200000000     0.749450000000     0          
O        O      0.371350000000     0.853700000000     0.689300000000     0          
O        O      0.452300000000     0.825150000000     0.698500000000     0          
O        O      0.367800000000     0.842250000000     0.816000000000     0          
O        O      0.297750000000     0.838350000000     0.766700000000     0          
O        O      0.375000000000     0.877250000000     0.625000000000     0          
O        O      0.298100000000     0.884250000000     0.668300000000     0          
O        O      0.250000000000     0.876750000000     0.730100000000     0          
O        O      0.250000000000     0.877150000000     0.801850000000     0          
O        O      0.250000000000     0.838150000000     0.680350000000     0          
O        O      0.250000000000     0.840800000000     0.609700000000     0          
T        Si     0.306850000000     0.735050000000     0.712800000000     0          
T        Si     0.340350000000     0.781200000000     0.657900000000     0          
T        Si     0.394650000000     0.825800000000     0.705950000000     0          
T        Si     0.347350000000     0.824850000000     0.781800000000     0          
T        Si     0.356400000000     0.880900000000     0.666300000000     0          
T        Si     0.250000000000     0.857650000000     0.766200000000     0          
T        Si     0.250000000000     0.871300000000     0.686750000000     0          
T        Si     0.250000000000     0.819650000000     0.643700000000     0          
T        Si     0.000000000000     0.841150000000     0.684200000000     0          
O        O      0.426350000000     0.750000000000     0.500000000000     0          
O        O      0.000000000000     0.772650000000     0.965400000000     0          
O        O      0.434000000000     0.745050000000     0.928150000000     0          
O        O      0.412450000000     0.793050000000     0.956650000000     0          
O        O      0.375000000000     0.728750000000     0.875000000000     0          
O        O      0.379250000000     0.701250000000     0.937450000000     0          
O        O      0.452100000000     0.699450000000     0.891550000000     0          
O        O      0.363100000000     0.674800000000     0.999450000000     0          
O        O      0.378650000000     0.646300000000     0.939300000000     0          
O        O      0.297700000000     0.674850000000     0.948500000000     0          
O        O      0.382200000000     0.657750000000     0.566000000000     0          
O        O      0.452250000000     0.661650000000     0.516700000000     0          
O        O      0.375000000000     0.622750000000     0.875000000000     0          
O        O      0.451900000000     0.615750000000     0.918300000000     0          
O        O      0.000000000000     0.623250000000     0.980100000000     0          
O        O      0.000000000000     0.622850000000     0.551850000000     0          
O        O      0.000000000000     0.661850000000     0.930350000000     0          
O        O      0.000000000000     0.659200000000     0.859700000000     0          
T        Si     0.443150000000     0.764950000000     0.962800000000     0          
T        Si     0.409650000000     0.718800000000     0.907900000000     0          
T        Si     0.355350000000     0.674200000000     0.955950000000     0          
T        Si     0.402650000000     0.675150000000     0.531800000000     0          
T        Si     0.393600000000     0.619100000000     0.916300000000     0          
T        Si     0.000000000000     0.642350000000     0.516200000000     0          
T        Si     0.000000000000     0.628700000000     0.936750000000     0          
T        Si     0.000000000000     0.680350000000     0.893700000000     0          
T        Si     0.250000000000     0.658850000000     0.934200000000     0          
O        O      0.250000000000     0.772650000000     0.784600000000     0          
O        O      0.316000000000     0.745050000000     0.821850000000     0          
O        O      0.337550000000     0.793050000000     0.793350000000     0          
O        O      0.370750000000     0.701250000000     0.812550000000     0          
O        O      0.297900000000     0.699450000000     0.858450000000     0          
O        O      0.386900000000     0.674800000000     0.750550000000     0          
O        O      0.371350000000     0.646300000000     0.810700000000     0          
O        O      0.452300000000     0.674850000000     0.801500000000     0          
O        O      0.367800000000     0.657750000000     0.684000000000     0          
O        O      0.297750000000     0.661650000000     0.733300000000     0          
O        O      0.298100000000     0.615750000000     0.831700000000     0          
O        O      0.250000000000     0.623250000000     0.769900000000     0          
O        O      0.250000000000     0.622850000000     0.698150000000     0          
O        O      0.250000000000     0.661850000000     0.819650000000     0          
O        O      0.250000000000     0.659200000000     0.890300000000     0          
T        Si     0.306850000000     0.764950000000     0.787200000000     0          
T        Si     0.340350000000     0.718800000000     0.842100000000     0          
T        Si     0.394650000000     0.674200000000     0.794050000000     0          
T        Si     0.347350000000     0.675150000000     0.718200000000     0          
T        Si     0.356400000000     0.619100000000     0.833700000000     0          
T        Si     0.250000000000     0.642350000000     0.733800000000     0          
T        Si     0.250000000000     0.628700000000     0.813250000000     0          
T        Si     0.250000000000     0.680350000000     0.856300000000     0          
T        Si     0.000000000000     0.658850000000     0.815800000000     0          
O        O      0.000000000000     0.727350000000     0.534600000000     0          
O        O      0.434000000000     0.754950000000     0.571850000000     0          
O        O      0.412450000000     0.706950000000     0.543350000000     0          
O        O      0.379250000000     0.798750000000     0.562550000000     0          
O        O      0.452100000000     0.800550000000     0.608450000000     0          
O        O      0.363100000000     0.825200000000     0.500550000000     0          
O        O      0.378650000000     0.853700000000     0.560700000000     0          
O        O      0.297700000000     0.825150000000     0.551500000000     0          
O        O      0.382200000000     0.842250000000     0.934000000000     0          
O        O      0.452250000000     0.838350000000     0.983300000000     0          
O        O      0.451900000000     0.884250000000     0.581700000000     0          
O        O      0.000000000000     0.876750000000     0.519900000000     0          
O        O      0.000000000000     0.877150000000     0.948150000000     0          
O        O      0.000000000000     0.838150000000     0.569650000000     0          
O        O      0.000000000000     0.840800000000     0.640300000000     0          
T        Si     0.443150000000     0.735050000000     0.537200000000     0          
T        Si     0.409650000000     0.781200000000     0.592100000000     0          
T        Si     0.355350000000     0.825800000000     0.544050000000     0          
T        Si     0.402650000000     0.824850000000     0.968200000000     0          
T        Si     0.393600000000     0.880900000000     0.583700000000     0          
T        Si     0.000000000000     0.857650000000     0.983800000000     0          
T        Si     0.000000000000     0.871300000000     0.563250000000     0          
T        Si     0.000000000000     0.819650000000     0.606300000000     0          
T        Si     0.250000000000     0.841150000000     0.565800000000     0          
O        O      0.176350000000     0.750000000000     0.750000000000     0          
O        O      0.184000000000     0.745050000000     0.821850000000     0          
O        O      0.162450000000     0.793050000000     0.793350000000     0          
O        O      0.125000000000     0.728750000000     0.875000000000     0          
O        O      0.129250000000     0.701250000000     0.812550000000     0          
O        O      0.202100000000     0.699450000000     0.858450000000     0          
O        O      0.113100000000     0.674800000000     0.750550000000     0          
O        O      0.128650000000     0.646300000000     0.810700000000     0          
O        O      0.047700000000     0.674850000000     0.801500000000     0          
O        O      0.132200000000     0.657750000000     0.684000000000     0          
O        O      0.202250000000     0.661650000000     0.733300000000     0          
O        O      0.125000000000     0.622750000000     0.875000000000     0          
O        O      0.201900000000     0.615750000000     0.831700000000     0          
T        Si     0.193150000000     0.764950000000     0.787200000000     0          
T        Si     0.159650000000     0.718800000000     0.842100000000     0          
T        Si     0.105350000000     0.674200000000     0.794050000000     0          
T        Si     0.152650000000     0.675150000000     0.718200000000     0          
T        Si     0.143600000000     0.619100000000     0.833700000000     0          
O        O      0.073650000000     0.750000000000     0.500000000000     0          
O        O      0.066000000000     0.754950000000     0.571850000000     0          
O        O      0.087550000000     0.706950000000     0.543350000000     0          
O        O      0.125000000000     0.771250000000     0.625000000000     0          
O        O      0.120750000000     0.798750000000     0.562550000000     0          
O        O      0.047900000000     0.800550000000     0.608450000000     0          
O        O      0.136900000000     0.825200000000     0.500550000000     0          
O        O      0.121350000000     0.853700000000     0.560700000000     0          
O        O      0.202300000000     0.825150000000     0.551500000000     0          
O        O      0.117800000000     0.842250000000     0.934000000000     0          
O        O      0.047750000000     0.838350000000     0.983300000000     0          
O        O      0.125000000000     0.877250000000     0.625000000000     0          
O        O      0.048100000000     0.884250000000     0.581700000000     0          
T        Si     0.056850000000     0.735050000000     0.537200000000     0          
T        Si     0.090350000000     0.781200000000     0.592100000000     0          
T        Si     0.144650000000     0.825800000000     0.544050000000     0          
T        Si     0.097350000000     0.824850000000     0.968200000000     0          
T        Si     0.106400000000     0.880900000000     0.583700000000     0          
O        O      0.184000000000     0.754950000000     0.678150000000     0          
O        O      0.162450000000     0.706950000000     0.706650000000     0          
O        O      0.129250000000     0.798750000000     0.687450000000     0          
O        O      0.202100000000     0.800550000000     0.641550000000     0          
O        O      0.113100000000     0.825200000000     0.749450000000     0          
O        O      0.128650000000     0.853700000000     0.689300000000     0          
O        O      0.047700000000     0.825150000000     0.698500000000     0          
O        O      0.132200000000     0.842250000000     0.816000000000     0          
O        O      0.202250000000     0.838350000000     0.766700000000     0          
O        O      0.201900000000     0.884250000000     0.668300000000     0          
T        Si     0.193150000000     0.735050000000     0.712800000000     0          
T        Si     0.159650000000     0.781200000000     0.657900000000     0          
T        Si     0.105350000000     0.825800000000     0.705950000000     0          
T        Si     0.152650000000     0.824850000000     0.781800000000     0          
T        Si     0.143600000000     0.880900000000     0.666300000000     0          
O        O      0.066000000000     0.745050000000     0.928150000000     0          
O        O      0.087550000000     0.793050000000     0.956650000000     0          
O        O      0.120750000000     0.701250000000     0.937450000000     0          
O        O      0.047900000000     0.699450000000     0.891550000000     0          
O        O      0.136900000000     0.674800000000     0.999450000000     0          
O        O      0.121350000000     0.646300000000     0.939300000000     0          
O        O      0.202300000000     0.674850000000     0.948500000000     0          
O        O      0.117800000000     0.657750000000     0.566000000000     0          
O        O      0.047750000000     0.661650000000     0.516700000000     0          
O        O      0.048100000000     0.615750000000     0.918300000000     0          
T        Si     0.056850000000     0.764950000000     0.962800000000     0          
T        Si     0.090350000000     0.718800000000     0.907900000000     0          
T        Si     0.144650000000     0.674200000000     0.955950000000     0          
T        Si     0.097350000000     0.675150000000     0.531800000000     0          
T        Si     0.106400000000     0.619100000000     0.916300000000     0          
O        O      0.073650000000     0.500000000000     0.750000000000     0          
O        O      0.000000000000     0.977350000000     0.715400000000     0          
O        O      0.066000000000     0.504950000000     0.678150000000     0          
O        O      0.087550000000     0.956950000000     0.706650000000     0          
O        O      0.125000000000     0.521250000000     0.625000000000     0          
O        O      0.120750000000     0.548750000000     0.687450000000     0          
O        O      0.047900000000     0.550550000000     0.641550000000     0          
O        O      0.136900000000     0.575200000000     0.749450000000     0          
O        O      0.121350000000     0.603700000000     0.689300000000     0          
O        O      0.202300000000     0.575150000000     0.698500000000     0          
O        O      0.117800000000     0.592250000000     0.816000000000     0          
O        O      0.047750000000     0.588350000000     0.766700000000     0          
O        O      0.125000000000     0.627250000000     0.625000000000     0          
O        O      0.048100000000     0.634250000000     0.668300000000     0          
O        O      0.000000000000     0.626750000000     0.730100000000     0          
O        O      0.000000000000     0.627150000000     0.801850000000     0          
O        O      0.000000000000     0.588150000000     0.680350000000     0          
O        O      0.000000000000     0.590800000000     0.609700000000     0          
T        Si     0.056850000000     0.985050000000     0.712800000000     0          
T        Si     0.090350000000     0.531200000000     0.657900000000     0          
T        Si     0.144650000000     0.575800000000     0.705950000000     0          
T        Si     0.097350000000     0.574850000000     0.781800000000     0          
T        Si     0.106400000000     0.630900000000     0.666300000000     0          
T        Si     0.000000000000     0.607650000000     0.766200000000     0          
T        Si     0.000000000000     0.621300000000     0.686750000000     0          
T        Si     0.000000000000     0.569650000000     0.643700000000     0          
T        Si     0.250000000000     0.591150000000     0.684200000000     0          
O        O      0.176350000000     0.500000000000     0.500000000000     0          
O        O      0.250000000000     0.522650000000     0.965400000000     0          
O        O      0.184000000000     0.995050000000     0.928150000000     0          
O        O      0.162450000000     0.543050000000     0.956650000000     0          
O        O      0.125000000000     0.978750000000     0.875000000000     0          
O        O      0.129250000000     0.951250000000     0.937450000000     0          
O        O      0.202100000000     0.949450000000     0.891550000000     0          
O        O      0.113100000000     0.924800000000     0.999450000000     0          
O        O      0.128650000000     0.896300000000     0.939300000000     0          
O        O      0.047700000000     0.924850000000     0.948500000000     0          
O        O      0.132200000000     0.907750000000     0.566000000000     0          
O        O      0.202250000000     0.911650000000     0.516700000000     0          
O        O      0.125000000000     0.872750000000     0.875000000000     0          
O        O      0.201900000000     0.865750000000     0.918300000000     0          
O        O      0.250000000000     0.873250000000     0.980100000000     0          
O        O      0.250000000000     0.872850000000     0.551850000000     0          
O        O      0.250000000000     0.911850000000     0.930350000000     0          
O        O      0.250000000000     0.909200000000     0.859700000000     0          
T        Si     0.193150000000     0.514950000000     0.962800000000     0          
T        Si     0.159650000000     0.968800000000     0.907900000000     0          
T        Si     0.105350000000     0.924200000000     0.955950000000     0          
T        Si     0.152650000000     0.925150000000     0.531800000000     0          
T        Si     0.143600000000     0.869100000000     0.916300000000     0          
T        Si     0.250000000000     0.892350000000     0.516200000000     0          
T        Si     0.250000000000     0.878700000000     0.936750000000     0          
T        Si     0.250000000000     0.930350000000     0.893700000000     0          
T        Si     0.000000000000     0.908850000000     0.934200000000     0          
O        O      0.000000000000     0.522650000000     0.784600000000     0          
O        O      0.066000000000     0.995050000000     0.821850000000     0          
O        O      0.087550000000     0.543050000000     0.793350000000     0          
O        O      0.120750000000     0.951250000000     0.812550000000     0          
O        O      0.047900000000     0.949450000000     0.858450000000     0          
O        O      0.136900000000     0.924800000000     0.750550000000     0          
O        O      0.121350000000     0.896300000000     0.810700000000     0          
O        O      0.202300000000     0.924850000000     0.801500000000     0          
O        O      0.117800000000     0.907750000000     0.684000000000     0          
O        O      0.047750000000     0.911650000000     0.733300000000     0          
O        O      0.048100000000     0.865750000000     0.831700000000     0          
O        O      0.000000000000     0.873250000000     0.769900000000     0          
O        O      0.000000000000     0.872850000000     0.698150000000     0          
O        O      0.000000000000     0.911850000000     0.819650000000     0          
O        O      0.000000000000     0.909200000000     0.890300000000     0          
T        Si     0.056850000000     0.514950000000     0.787200000000     0          
T        Si     0.090350000000     0.968800000000     0.842100000000     0          
T        Si     0.144650000000     0.924200000000     0.794050000000     0          
T        Si     0.097350000000     0.925150000000     0.718200000000     0          
T        Si     0.106400000000     0.869100000000     0.833700000000     0          
T        Si     0.000000000000     0.892350000000     0.733800000000     0          
T        Si     0.000000000000     0.878700000000     0.813250000000     0          
T        Si     0.000000000000     0.930350000000     0.856300000000     0          
T        Si     0.250000000000     0.908850000000     0.815800000000     0          
O        O      0.250000000000     0.977350000000     0.534600000000     0          
O        O      0.184000000000     0.504950000000     0.571850000000     0          
O        O      0.162450000000     0.956950000000     0.543350000000     0          
O        O      0.129250000000     0.548750000000     0.562550000000     0          
O        O      0.202100000000     0.550550000000     0.608450000000     0          
O        O      0.113100000000     0.575200000000     0.500550000000     0          
O        O      0.128650000000     0.603700000000     0.560700000000     0          
O        O      0.047700000000     0.575150000000     0.551500000000     0          
O        O      0.132200000000     0.592250000000     0.934000000000     0          
O        O      0.202250000000     0.588350000000     0.983300000000     0          
O        O      0.201900000000     0.634250000000     0.581700000000     0          
O        O      0.250000000000     0.626750000000     0.519900000000     0          
O        O      0.250000000000     0.627150000000     0.948150000000     0          
O        O      0.250000000000     0.588150000000     0.569650000000     0          
O        O      0.250000000000     0.590800000000     0.640300000000     0          
T        Si     0.193150000000     0.985050000000     0.537200000000     0          
T        Si     0.159650000000     0.531200000000     0.592100000000     0          
T        Si     0.105350000000     0.575800000000     0.544050000000     0          
T        Si     0.152650000000     0.574850000000     0.968200000000     0          
T        Si     0.143600000000     0.630900000000     0.583700000000     0          
T        Si     0.250000000000     0.607650000000     0.983800000000     0          
T        Si     0.250000000000     0.621300000000     0.563250000000     0          
T        Si     0.250000000000     0.569650000000     0.606300000000     0          
T        Si     0.000000000000     0.591150000000     0.565800000000     0          
O        O      0.426350000000     0.500000000000     0.750000000000     0          
O        O      0.434000000000     0.995050000000     0.821850000000     0          
O        O      0.412450000000     0.543050000000     0.793350000000     0          
O        O      0.375000000000     0.978750000000     0.875000000000     0          
O        O      0.379250000000     0.951250000000     0.812550000000     0          
O        O      0.452100000000     0.949450000000     0.858450000000     0          
O        O      0.363100000000     0.924800000000     0.750550000000     0          
O        O      0.378650000000     0.896300000000     0.810700000000     0          
O        O      0.297700000000     0.924850000000     0.801500000000     0          
O        O      0.382200000000     0.907750000000     0.684000000000     0          
O        O      0.452250000000     0.911650000000     0.733300000000     0          
O        O      0.375000000000     0.872750000000     0.875000000000     0          
O        O      0.451900000000     0.865750000000     0.831700000000     0          
T        Si     0.443150000000     0.514950000000     0.787200000000     0          
T        Si     0.409650000000     0.968800000000     0.842100000000     0          
T        Si     0.355350000000     0.924200000000     0.794050000000     0          
T        Si     0.402650000000     0.925150000000     0.718200000000     0          
T        Si     0.393600000000     0.869100000000     0.833700000000     0          
O        O      0.323650000000     0.500000000000     0.500000000000     0          
O        O      0.316000000000     0.504950000000     0.571850000000     0          
O        O      0.337550000000     0.956950000000     0.543350000000     0          
O        O      0.375000000000     0.521250000000     0.625000000000     0          
O        O      0.370750000000     0.548750000000     0.562550000000     0          
O        O      0.297900000000     0.550550000000     0.608450000000     0          
O        O      0.386900000000     0.575200000000     0.500550000000     0          
O        O      0.371350000000     0.603700000000     0.560700000000     0          
O        O      0.452300000000     0.575150000000     0.551500000000     0          
O        O      0.367800000000     0.592250000000     0.934000000000     0          
O        O      0.297750000000     0.588350000000     0.983300000000     0          
O        O      0.375000000000     0.627250000000     0.625000000000     0          
O        O      0.298100000000     0.634250000000     0.581700000000     0          
T        Si     0.306850000000     0.985050000000     0.537200000000     0          
T        Si     0.340350000000     0.531200000000     0.592100000000     0          
T        Si     0.394650000000     0.575800000000     0.544050000000     0          
T        Si     0.347350000000     0.574850000000     0.968200000000     0          
T        Si     0.356400000000     0.630900000000     0.583700000000     0          
O        O      0.434000000000     0.504950000000     0.678150000000     0          
O        O      0.412450000000     0.956950000000     0.706650000000     0          
O        O      0.379250000000     0.548750000000     0.687450000000     0          
O        O      0.452100000000     0.550550000000     0.641550000000     0          
O        O      0.363100000000     0.575200000000     0.749450000000     0          
O        O      0.378650000000     0.603700000000     0.689300000000     0          
O        O      0.297700000000     0.575150000000     0.698500000000     0          
O        O      0.382200000000     0.592250000000     0.816000000000     0          
O        O      0.452250000000     0.588350000000     0.766700000000     0          
O        O      0.451900000000     0.634250000000     0.668300000000     0          
T        Si     0.443150000000     0.985050000000     0.712800000000     0          
T        Si     0.409650000000     0.531200000000     0.657900000000     0          
T        Si     0.355350000000     0.575800000000     0.705950000000     0          
T        Si     0.402650000000     0.574850000000     0.781800000000     0          
T        Si     0.393600000000     0.630900000000     0.666300000000     0          
O        O      0.316000000000     0.995050000000     0.928150000000     0          
O        O      0.337550000000     0.543050000000     0.956650000000     0          
O        O      0.370750000000     0.951250000000     0.937450000000     0          
O        O      0.297900000000     0.949450000000     0.891550000000     0          
O        O      0.386900000000     0.924800000000     0.999450000000     0          
O        O      0.371350000000     0.896300000000     0.939300000000     0          
O        O      0.452300000000     0.924850000000     0.948500000000     0          
O        O      0.367800000000     0.907750000000     0.566000000000     0          
O        O      0.297750000000     0.911650000000     0.516700000000     0          
O        O      0.298100000000     0.865750000000     0.918300000000     0          
T        Si     0.306850000000     0.514950000000     0.962800000000     0          
T        Si     0.340350000000     0.968800000000     0.907900000000     0          
T        Si     0.394650000000     0.924200000000     0.955950000000     0          
T        Si     0.347350000000     0.925150000000     0.531800000000     0          
T        Si     0.356400000000     0.869100000000     0.916300000000     0          
O        O      0.823650000000     0.250000000000     0.250000000000     0          
O        O      0.750000000000     0.227350000000     0.215400000000     0          
O        O      0.816000000000     0.254950000000     0.178150000000     0          
O        O      0.837550000000     0.206950000000     0.206650000000     0          
O        O      0.875000000000     0.271250000000     0.125000000000     0          
O        O      0.870750000000     0.298750000000     0.187450000000     0          
O        O      0.797900000000     0.300550000000     0.141550000000     0          
O        O      0.886900000000     0.325200000000     0.249450000000     0          
O        O      0.871350000000     0.353700000000     0.189300000000     0          
O        O      0.952300000000     0.325150000000     0.198500000000     0          
O        O      0.867800000000     0.342250000000     0.316000000000     0          
O        O      0.797750000000     0.338350000000     0.266700000000     0          
O        O      0.875000000000     0.377250000000     0.125000000000     0          
O        O      0.798100000000     0.384250000000     0.168300000000     0          
O        O      0.750000000000     0.376750000000     0.230100000000     0          
O        O      0.750000000000     0.377150000000     0.301850000000     0          
O        O      0.750000000000     0.338150000000     0.180350000000     0          
O        O      0.750000000000     0.340800000000     0.109700000000     0          
T        Si     0.806850000000     0.235050000000     0.212800000000     0          
T        Si     0.840350000000     0.281200000000     0.157900000000     0          
T        Si     0.894650000000     0.325800000000     0.205950000000     0          
T        Si     0.847350000000     0.324850000000     0.281800000000     0          
T        Si     0.856400000000     0.380900000000     0.166300000000     0          
T        Si     0.750000000000     0.357650000000     0.266200000000     0          
T        Si     0.750000000000     0.371300000000     0.186750000000     0          
T        Si     0.750000000000     0.319650000000     0.143700000000     0          
T        Si     0.500000000000     0.341150000000     0.184200000000     0          
O        O      0.926350000000     0.250000000000     0.000000000000     0          
O        O      0.500000000000     0.272650000000     0.465400000000     0          
O        O      0.934000000000     0.245050000000     0.428150000000     0          
O        O      0.912450000000     0.293050000000     0.456650000000     0          
O        O      0.875000000000     0.228750000000     0.375000000000     0          
O        O      0.879250000000     0.201250000000     0.437450000000     0          
O        O      0.952100000000     0.199450000000     0.391550000000     0          
O        O      0.863100000000     0.174800000000     0.499450000000     0          
O        O      0.878650000000     0.146300000000     0.439300000000     0          
O        O      0.797700000000     0.174850000000     0.448500000000     0          
O        O      0.882200000000     0.157750000000     0.066000000000     0          
O        O      0.952250000000     0.161650000000     0.016700000000     0          
O        O      0.875000000000     0.122750000000     0.375000000000     0          
O        O      0.951900000000     0.115750000000     0.418300000000     0          
O        O      0.500000000000     0.123250000000     0.480100000000     0          
O        O      0.500000000000     0.122850000000     0.051850000000     0          
O        O      0.500000000000     0.161850000000     0.430350000000     0          
O        O      0.500000000000     0.159200000000     0.359700000000     0          
T        Si     0.943150000000     0.264950000000     0.462800000000     0          
T        Si     0.909650000000     0.218800000000     0.407900000000     0          
T        Si     0.855350000000     0.174200000000     0.455950000000     0          
T        Si     0.902650000000     0.175150000000     0.031800000000     0          
T        Si     0.893600000000     0.119100000000     0.416300000000     0          
T        Si     0.500000000000     0.142350000000     0.016200000000     0          
T        Si     0.500000000000     0.128700000000     0.436750000000     0          
T        Si     0.500000000000     0.180350000000     0.393700000000     0          
T        Si     0.750000000000     0.158850000000     0.434200000000     0          
O        O      0.750000000000     0.272650000000     0.284600000000     0          
O        O      0.816000000000     0.245050000000     0.321850000000     0          
O        O      0.837550000000     0.293050000000     0.293350000000     0          
O        O      0.870750000000     0.201250000000     0.312550000000     0          
O        O      0.797900000000     0.199450000000     0.358450000000     0          
O        O      0.886900000000     0.174800000000     0.250550000000     0          
O        O      0.871350000000     0.146300000000     0.310700000000     0          
O        O      0.952300000000     0.174850000000     0.301500000000     0          
O        O      0.867800000000     0.157750000000     0.184000000000     0          
O        O      0.797750000000     0.161650000000     0.233300000000     0          
O        O      0.798100000000     0.115750000000     0.331700000000     0          
O        O      0.750000000000     0.123250000000     0.269900000000     0          
O        O      0.750000000000     0.122850000000     0.198150000000     0          
O        O      0.750000000000     0.161850000000     0.319650000000     0          
O        O      0.750000000000     0.159200000000     0.390300000000     0          
T        Si     0.806850000000     0.264950000000     0.287200000000     0          
T        Si     0.840350000000     0.218800000000     0.342100000000     0          
T        Si     0.894650000000     0.174200000000     0.294050000000     0          
T        Si     0.847350000000     0.175150000000     0.218200000000     0          
T        Si     0.856400000000     0.119100000000     0.333700000000     0          
T        Si     0.750000000000     0.142350000000     0.233800000000     0          
T        Si     0.750000000000     0.128700000000     0.313250000000     0          
T        Si     0.750000000000     0.180350000000     0.356300000000     0          
T        Si     0.500000000000     0.158850000000     0.315800000000     0          
O        O      0.500000000000     0.227350000000     0.034600000000     0          
O        O      0.934000000000     0.254950000000     0.071850000000     0          
O        O      0.912450000000     0.206950000000     0.043350000000     0          
O        O      0.879250000000     0.298750000000     0.062550000000     0          
O        O      0.952100000000     0.300550000000     0.108450000000     0          
O        O      0.863100000000     0.325200000000     0.000550000000     0          
O        O      0.878650000000     0.353700000000     0.060700000000     0          
O        O      0.797700000000     0.325150000000     0.051500000000     0          
O        O      0.882200000000     0.342250000000     0.434000000000     0          
O        O      0.952250000000     0.338350000000     0.483300000000     0          
O        O      0.951900000000     0.384250000000     0.081700000000     0          
O        O      0.500000000000     0.376750000000     0.019900000000     0          
O        O      0.500000000000     0.377150000000     0.448150000000     0          
O        O      0.500000000000     0.338150000000     0.069650000000     0          
O        O      0.500000000000     0.340800000000     0.140300000000     0          
T        Si     0.943150000000     0.235050000000     0.037200000000     0          
T        Si     0.909650000000     0.281200000000     0.092100000000     0          
T        Si     0.855350000000     0.325800000000     0.044050000000     0          
T        Si     0.902650000000     0.324850000000     0.468200000000     0          
T        Si     0.893600000000     0.380900000000     0.083700000000     0          
T        Si     0.500000000000     0.357650000000     0.483800000000     0          
T        Si     0.500000000000     0.371300000000     0.063250000000     0          
T        Si     0.500000000000     0.319650000000     0.106300000000     0          
T        Si     0.750000000000     0.341150000000     0.065800000000     0          
O        O      0.676350000000     0.250000000000     0.250000000000     0          
O        O      0.684000000000     0.245050000000     0.321850000000     0          
O        O      0.662450000000     0.293050000000     0.293350000000     0          
O        O      0.625000000000     0.228750000000     0.375000000000     0          
O        O      0.629250000000     0.201250000000     0.312550000000     0          
O        O      0.702100000000     0.199450000000     0.358450000000     0          
O        O      0.613100000000     0.174800000000     0.250550000000     0          
O        O      0.628650000000     0.146300000000     0.310700000000     0          
O        O      0.547700000000     0.174850000000     0.301500000000     0          
O        O      0.632200000000     0.157750000000     0.184000000000     0          
O        O      0.702250000000     0.161650000000     0.233300000000     0          
O        O      0.625000000000     0.122750000000     0.375000000000     0          
O        O      0.701900000000     0.115750000000     0.331700000000     0          
T        Si     0.693150000000     0.264950000000     0.287200000000     0          
T        Si     0.659650000000     0.218800000000     0.342100000000     0          
T        Si     0.605350000000     0.174200000000     0.294050000000     0          
T        Si     0.652650000000     0.175150000000     0.218200000000     0          
T        Si     0.643600000000     0.119100000000     0.333700000000     0          
O        O      0.573650000000     0.250000000000     0.000000000000     0          
O        O      0.566000000000     0.254950000000     0.071850000000     0          
O        O      0.587550000000     0.206950000000     0.043350000000     0          
O        O      0.625000000000     0.271250000000     0.125000000000     0          
O        O      0.620750000000     0.298750000000     0.062550000000     0          
O        O      0.547900000000     0.300550000000     0.108450000000     0          
O        O      0.636900000000     0.325200000000     0.000550000000     0          
O        O      0.621350000000     0.353700000000     0.060700000000     0          
O        O      0.702300000000     0.325150000000     0.051500000000     0          
O        O      0.617800000000     0.342250000000     0.434000000000     0          
O        O      0.547750000000     0.338350000000     0.483300000000     0          
O        O      0.625000000000     0.377250000000     0.125000000000     0          
O        O      0.548100000000     0.384250000000     0.081700000000     0          
T        Si     0.556850000000     0.235050000000     0.037200000000     0          
T        Si     0.590350000000     0.281200000000     0.092100000000     0          
T        Si     0.644650000000     0.325800000000     0.044050000000     0          
T        Si     0.597350000000     0.324850000000     0.468200000000     0          
T        Si     0.606400000000     0.380900000000     0.083700000000     0          
O        O      0.684000000000     0.254950000000     0.178150000000     0          
O        O      0.662450000000     0.206950000000     0.206650000000     0          
O        O      0.629250000000     0.298750000000     0.187450000000     0          
O        O      0.702100000000     0.300550000000     0.141550000000     0          
O        O      0.613100000000     0.325200000000     0.249450000000     0          
O        O      0.628650000000     0.353700000000     0.189300000000     0          
O        O      0.547700000000     0.325150000000     0.198500000000     0          
O        O      0.632200000000     0.342250000000     0.316000000000     0          
O        O      0.702250000000     0.338350000000     0.266700000000     0          
O        O      0.701900000000     0.384250000000     0.168300000000     0          
T        Si     0.693150000000     0.235050000000     0.212800000000     0          
T        Si     0.659650000000     0.281200000000     0.157900000000     0          
T        Si     0.605350000000     0.325800000000     0.205950000000     0          
T        Si     0.652650000000     0.324850000000     0.281800000000     0          
T        Si     0.643600000000     0.380900000000     0.166300000000     0          
O        O      0.566000000000     0.245050000000     0.428150000000     0          
O        O      0.587550000000     0.293050000000     0.456650000000     0          
O        O      0.620750000000     0.201250000000     0.437450000000     0          
O        O      0.547900000000     0.199450000000     0.391550000000     0          
O        O      0.636900000000     0.174800000000     0.499450000000     0          
O        O      0.621350000000     0.146300000000     0.439300000000     0          
O        O      0.702300000000     0.174850000000     0.448500000000     0          
O        O      0.617800000000     0.157750000000     0.066000000000     0          
O        O      0.547750000000     0.161650000000     0.016700000000     0          
O        O      0.548100000000     0.115750000000     0.418300000000     0          
T        Si     0.556850000000     0.264950000000     0.462800000000     0          
T        Si     0.590350000000     0.218800000000     0.407900000000     0          
T        Si     0.644650000000     0.174200000000     0.455950000000     0          
T        Si     0.597350000000     0.175150000000     0.031800000000     0          
T        Si     0.606400000000     0.119100000000     0.416300000000     0          
O        O      0.573650000000     0.000000000000     0.250000000000     0          
O        O      0.500000000000     0.477350000000     0.215400000000     0          
O        O      0.566000000000     0.004950000000     0.178150000000     0          
O        O      0.587550000000     0.456950000000     0.206650000000     0          
O        O      0.625000000000     0.021250000000     0.125000000000     0          
O        O      0.620750000000     0.048750000000     0.187450000000     0          
O        O      0.547900000000     0.050550000000     0.141550000000     0          
O        O      0.636900000000     0.075200000000     0.249450000000     0          
O        O      0.621350000000     0.103700000000     0.189300000000     0          
O        O      0.702300000000     0.075150000000     0.198500000000     0          
O        O      0.617800000000     0.092250000000     0.316000000000     0          
O        O      0.547750000000     0.088350000000     0.266700000000     0          
O        O      0.625000000000     0.127250000000     0.125000000000     0          
O        O      0.548100000000     0.134250000000     0.168300000000     0          
O        O      0.500000000000     0.126750000000     0.230100000000     0          
O        O      0.500000000000     0.127150000000     0.301850000000     0          
O        O      0.500000000000     0.088150000000     0.180350000000     0          
O        O      0.500000000000     0.090800000000     0.109700000000     0          
T        Si     0.556850000000     0.485050000000     0.212800000000     0          
T        Si     0.590350000000     0.031200000000     0.157900000000     0          
T        Si     0.644650000000     0.075800000000     0.205950000000     0          
T        Si     0.597350000000     0.074850000000     0.281800000000     0          
T        Si     0.606400000000     0.130900000000     0.166300000000     0          
T        Si     0.500000000000     0.107650000000     0.266200000000     0          
T        Si     0.500000000000     0.121300000000     0.186750000000     0          
T        Si     0.500000000000     0.069650000000     0.143700000000     0          
T        Si     0.750000000000     0.091150000000     0.184200000000     0          
O        O      0.676350000000     0.000000000000     0.000000000000     0          
O        O      0.750000000000     0.022650000000     0.465400000000     0          
O        O      0.684000000000     0.495050000000     0.428150000000     0          
O        O      0.662450000000     0.043050000000     0.456650000000     0          
O        O      0.625000000000     0.478750000000     0.375000000000     0          
O        O      0.629250000000     0.451250000000     0.437450000000     0          
O        O      0.702100000000     0.449450000000     0.391550000000     0          
O        O      0.613100000000     0.424800000000     0.499450000000     0          
O        O      0.628650000000     0.396300000000     0.439300000000     0          
O        O      0.547700000000     0.424850000000     0.448500000000     0          
O        O      0.632200000000     0.407750000000     0.066000000000     0          
O        O      0.702250000000     0.411650000000     0.016700000000     0          
O        O      0.625000000000     0.372750000000     0.375000000000     0          
O        O      0.701900000000     0.365750000000     0.418300000000     0          
O        O      0.750000000000     0.373250000000     0.480100000000     0          
O        O      0.750000000000     0.372850000000     0.051850000000     0          
O        O      0.750000000000     0.411850000000     0.430350000000     0          
O        O      0.750000000000     0.409200000000     0.359700000000     0          
T        Si     0.693150000000     0.014950000000     0.462800000000     0          
T        Si     0.659650000000     0.468800000000     0.407900000000     0          
T        Si     0.605350000000     0.424200000000     0.455950000000     0          
T        Si     0.652650000000     0.425150000000     0.031800000000     0          
T        Si     0.643600000000     0.369100000000     0.416300000000     0          
T        Si     0.750000000000     0.392350000000     0.016200000000     0          
T        Si     0.750000000000     0.378700000000     0.436750000000     0          
T        Si     0.750000000000     0.430350000000     0.393700000000     0          
T        Si     0.500000000000     0.408850000000     0.434200000000     0          
O        O      0.500000000000     0.022650000000     0.284600000000     0          
O        O      0.566000000000     0.495050000000     0.321850000000     0          
O        O      0.587550000000     0.043050000000     0.293350000000     0          
O        O      0.620750000000     0.451250000000     0.312550000000     0          
O        O      0.547900000000     0.449450000000     0.358450000000     0          
O        O      0.636900000000     0.424800000000     0.250550000000     0          
O        O      0.621350000000     0.396300000000     0.310700000000     0          
O        O      0.702300000000     0.424850000000     0.301500000000     0          
O        O      0.617800000000     0.407750000000     0.184000000000     0          
O        O      0.547750000000     0.411650000000     0.233300000000     0          
O        O      0.548100000000     0.365750000000     0.331700000000     0          
O        O      0.500000000000     0.373250000000     0.269900000000     0          
O        O      0.500000000000     0.372850000000     0.198150000000     0          
O        O      0.500000000000     0.411850000000     0.319650000000     0          
O        O      0.500000000000     0.409200000000     0.390300000000     0          
T        Si     0.556850000000     0.014950000000     0.287200000000     0          
T        Si     0.590350000000     0.468800000000     0.342100000000     0          
T        Si     0.644650000000     0.424200000000     0.294050000000     0          
T        Si     0.597350000000     0.425150000000     0.218200000000     0          
T        Si     0.606400000000     0.369100000000     0.333700000000     0          
T        Si     0.500000000000     0.392350000000     0.233800000000     0          
T        Si     0.500000000000     0.378700000000     0.313250000000     0          
T        Si     0.500000000000     0.430350000000     0.356300000000     0          
T        Si     0.750000000000     0.408850000000     0.315800000000     0          
O        O      0.750000000000     0.477350000000     0.034600000000     0          
O        O      0.684000000000     0.004950000000     0.071850000000     0          
O        O      0.662450000000     0.456950000000     0.043350000000     0          
O        O      0.629250000000     0.048750000000     0.062550000000     0          
O        O      0.702100000000     0.050550000000     0.108450000000     0          
O        O      0.613100000000     0.075200000000     0.000550000000     0          
O        O      0.628650000000     0.103700000000     0.060700000000     0          
O        O      0.547700000000     0.075150000000     0.051500000000     0          
O        O      0.632200000000     0.092250000000     0.434000000000     0          
O        O      0.702250000000     0.088350000000     0.483300000000     0          
O        O      0.701900000000     0.134250000000     0.081700000000     0          
O        O      0.750000000000     0.126750000000     0.019900000000     0          
O        O      0.750000000000     0.127150000000     0.448150000000     0          
O        O      0.750000000000     0.088150000000     0.069650000000     0          
O        O      0.750000000000     0.090800000000     0.140300000000     0          
T        Si     0.693150000000     0.485050000000     0.037200000000     0          
T        Si     0.659650000000     0.031200000000     0.092100000000     0          
T        Si     0.605350000000     0.075800000000     0.044050000000     0          
T        Si     0.652650000000     0.074850000000     0.468200000000     0          
T        Si     0.643600000000     0.130900000000     0.083700000000     0          
T        Si     0.750000000000     0.107650000000     0.483800000000     0          
T        Si     0.750000000000     0.121300000000     0.063250000000     0          
T        Si     0.750000000000     0.069650000000     0.106300000000     0          
T        Si     0.500000000000     0.091150000000     0.065800000000     0          
O        O      0.926350000000     0.000000000000     0.250000000000     0          
O        O      0.934000000000     0.495050000000     0.321850000000     0          
O        O      0.912450000000     0.043050000000     0.293350000000     0          
O        O      0.875000000000     0.478750000000     0.375000000000     0          
O        O      0.879250000000     0.451250000000     0.312550000000     0          
O        O      0.952100000000     0.449450000000     0.358450000000     0          
O        O      0.863100000000     0.424800000000     0.250550000000     0          
O        O      0.878650000000     0.396300000000     0.310700000000     0          
O        O      0.797700000000     0.424850000000     0.301500000000     0          
O        O      0.882200000000     0.407750000000     0.184000000000     0          
O        O      0.952250000000     0.411650000000     0.233300000000     0          
O        O      0.875000000000     0.372750000000     0.375000000000     0          
O        O      0.951900000000     0.365750000000     0.331700000000     0          
T        Si     0.943150000000     0.014950000000     0.287200000000     0          
T        Si     0.909650000000     0.468800000000     0.342100000000     0          
T        Si     0.855350000000     0.424200000000     0.294050000000     0          
T        Si     0.902650000000     0.425150000000     0.218200000000     0          
T        Si     0.893600000000     0.369100000000     0.333700000000     0          
O        O      0.823650000000     0.000000000000     0.000000000000     0          
O        O      0.816000000000     0.004950000000     0.071850000000     0          
O        O      0.837550000000     0.456950000000     0.043350000000     0          
O        O      0.875000000000     0.021250000000     0.125000000000     0          
O        O      0.870750000000     0.048750000000     0.062550000000     0          
O        O      0.797900000000     0.050550000000     0.108450000000     0          
O        O      0.886900000000     0.075200000000     0.000550000000     0          
O        O      0.871350000000     0.103700000000     0.060700000000     0          
O        O      0.952300000000     0.075150000000     0.051500000000     0          
O        O      0.867800000000     0.092250000000     0.434000000000     0          
O        O      0.797750000000     0.088350000000     0.483300000000     0          
O        O      0.875000000000     0.127250000000     0.125000000000     0          
O        O      0.798100000000     0.134250000000     0.081700000000     0          
T        Si     0.806850000000     0.485050000000     0.037200000000     0          
T        Si     0.840350000000     0.031200000000     0.092100000000     0          
T        Si     0.894650000000     0.075800000000     0.044050000000     0          
T        Si     0.847350000000     0.074850000000     0.468200000000     0          
T        Si     0.856400000000     0.130900000000     0.083700000000     0          
O        O      0.934000000000     0.004950000000     0.178150000000     0          
O        O      0.912450000000     0.456950000000     0.206650000000     0          
O        O      0.879250000000     0.048750000000     0.187450000000     0          
O        O      0.952100000000     0.050550000000     0.141550000000     0          
O        O      0.863100000000     0.075200000000     0.249450000000     0          
O        O      0.878650000000     0.103700000000     0.189300000000     0          
O        O      0.797700000000     0.075150000000     0.198500000000     0          
O        O      0.882200000000     0.092250000000     0.316000000000     0          
O        O      0.952250000000     0.088350000000     0.266700000000     0          
O        O      0.951900000000     0.134250000000     0.168300000000     0          
T        Si     0.943150000000     0.485050000000     0.212800000000     0          
T        Si     0.909650000000     0.031200000000     0.157900000000     0          
T        Si     0.855350000000     0.075800000000     0.205950000000     0          
T        Si     0.902650000000     0.074850000000     0.281800000000     0          
T        Si     0.893600000000     0.130900000000     0.166300000000     0          
O        O      0.816000000000     0.495050000000     0.428150000000     0          
O        O      0.837550000000     0.043050000000     0.456650000000     0          
O        O      0.870750000000     0.451250000000     0.437450000000     0          
O        O      0.797900000000     0.449450000000     0.391550000000     0          
O        O      0.886900000000     0.424800000000     0.499450000000     0          
O        O      0.871350000000     0.396300000000     0.439300000000     0          
O        O      0.952300000000     0.424850000000     0.448500000000     0          
O        O      0.867800000000     0.407750000000     0.066000000000     0          
O        O      0.797750000000     0.411650000000     0.016700000000     0          
O        O      0.798100000000     0.365750000000     0.418300000000     0          
T        Si     0.806850000000     0.014950000000     0.462800000000     0          
T        Si     0.840350000000     0.468800000000     0.407900000000     0          
T        Si     0.894650000000     0.424200000000     0.455950000000     0          
T        Si     0.847350000000     0.425150000000     0.031800000000     0          
T        Si     0.856400000000     0.369100000000     0.416300000000     0          
O        O      0.823650000000     0.250000000000     0.750000000000     0          
O        O      0.750000000000     0.227350000000     0.715400000000     0          
O        O      0.816000000000     0.254950000000     0.678150000000     0          
O        O      0.837550000000     0.206950000000     0.706650000000     0          
O        O      0.875000000000     0.271250000000     0.625000000000     0          
O        O      0.870750000000     0.298750000000     0.687450000000     0          
O        O      0.797900000000     0.300550000000     0.641550000000     0          
O        O      0.886900000000     0.325200000000     0.749450000000     0          
O        O      0.871350000000     0.353700000000     0.689300000000     0          
O        O      0.952300000000     0.325150000000     0.698500000000     0          
O        O      0.867800000000     0.342250000000     0.816000000000     0          
O        O      0.797750000000     0.338350000000     0.766700000000     0          
O        O      0.875000000000     0.377250000000     0.625000000000     0          
O        O      0.798100000000     0.384250000000     0.668300000000     0          
O        O      0.750000000000     0.376750000000     0.730100000000     0          
O        O      0.750000000000     0.377150000000     0.801850000000     0          
O        O      0.750000000000     0.338150000000     0.680350000000     0          
O        O      0.750000000000     0.340800000000     0.609700000000     0          
T        Si     0.806850000000     0.235050000000     0.712800000000     0          
T        Si     0.840350000000     0.281200000000     0.657900000000     0          
T        Si     0.894650000000     0.325800000000     0.705950000000     0          
T        Si     0.847350000000     0.324850000000     0.781800000000     0          
T        Si     0.856400000000     0.380900000000     0.666300000000     0          
T        Si     0.750000000000     0.357650000000     0.766200000000     0          
T        Si     0.750000000000     0.371300000000     0.686750000000     0          
T        Si     0.750000000000     0.319650000000     0.643700000000     0          
T        Si     0.500000000000     0.341150000000     0.684200000000     0          
O        O      0.926350000000     0.250000000000     0.500000000000     0          
O        O      0.500000000000     0.272650000000     0.965400000000     0          
O        O      0.934000000000     0.245050000000     0.928150000000     0          
O        O      0.912450000000     0.293050000000     0.956650000000     0          
O        O      0.875000000000     0.228750000000     0.875000000000     0          
O        O      0.879250000000     0.201250000000     0.937450000000     0          
O        O      0.952100000000     0.199450000000     0.891550000000     0          
O        O      0.863100000000     0.174800000000     0.999450000000     0          
O        O      0.878650000000     0.146300000000     0.939300000000     0          
O        O      0.797700000000     0.174850000000     0.948500000000     0          
O        O      0.882200000000     0.157750000000     0.566000000000     0          
O        O      0.952250000000     0.161650000000     0.516700000000     0          
O        O      0.875000000000     0.122750000000     0.875000000000     0          
O        O      0.951900000000     0.115750000000     0.918300000000     0          
O        O      0.500000000000     0.123250000000     0.980100000000     0          
O        O      0.500000000000     0.122850000000     0.551850000000     0          
O        O      0.500000000000     0.161850000000     0.930350000000     0          
O        O      0.500000000000     0.159200000000     0.859700000000     0          
T        Si     0.943150000000     0.264950000000     0.962800000000     0          
T        Si     0.909650000000     0.218800000000     0.907900000000     0          
T        Si     0.855350000000     0.174200000000     0.955950000000     0          
T        Si     0.902650000000     0.175150000000     0.531800000000     0          
T        Si     0.893600000000     0.119100000000     0.916300000000     0          
T        Si     0.500000000000     0.142350000000     0.516200000000     0          
T        Si     0.500000000000     0.128700000000     0.936750000000     0          
T        Si     0.500000000000     0.180350000000     0.893700000000     0          
T        Si     0.750000000000     0.158850000000     0.934200000000     0          
O        O      0.750000000000     0.272650000000     0.784600000000     0          
O        O      0.816000000000     0.245050000000     0.821850000000     0          
O        O      0.837550000000     0.293050000000     0.793350000000     0          
O        O      0.870750000000     0.201250000000     0.812550000000     0          
O        O      0.797900000000     0.199450000000     0.858450000000     0          
O        O      0.886900000000     0.174800000000     0.750550000000     0          
O        O      0.871350000000     0.146300000000     0.810700000000     0          
O        O      0.952300000000     0.174850000000     0.801500000000     0          
O        O      0.867800000000     0.157750000000     0.684000000000     0          
O        O      0.797750000000     0.161650000000     0.733300000000     0          
O        O      0.798100000000     0.115750000000     0.831700000000     0          
O        O      0.750000000000     0.123250000000     0.769900000000     0          
O        O      0.750000000000     0.122850000000     0.698150000000     0          
O        O      0.750000000000     0.161850000000     0.819650000000     0          
O        O      0.750000000000     0.159200000000     0.890300000000     0          
T        Si     0.806850000000     0.264950000000     0.787200000000     0          
T        Si     0.840350000000     0.218800000000     0.842100000000     0          
T        Si     0.894650000000     0.174200000000     0.794050000000     0          
T        Si     0.847350000000     0.175150000000     0.718200000000     0          
T        Si     0.856400000000     0.119100000000     0.833700000000     0          
T        Si     0.750000000000     0.142350000000     0.733800000000     0          
T        Si     0.750000000000     0.128700000000     0.813250000000     0          
T        Si     0.750000000000     0.180350000000     0.856300000000     0          
T        Si     0.500000000000     0.158850000000     0.815800000000     0          
O        O      0.500000000000     0.227350000000     0.534600000000     0          
O        O      0.934000000000     0.254950000000     0.571850000000     0          
O        O      0.912450000000     0.206950000000     0.543350000000     0          
O        O      0.879250000000     0.298750000000     0.562550000000     0          
O        O      0.952100000000     0.300550000000     0.608450000000     0          
O        O      0.863100000000     0.325200000000     0.500550000000     0          
O        O      0.878650000000     0.353700000000     0.560700000000     0          
O        O      0.797700000000     0.325150000000     0.551500000000     0          
O        O      0.882200000000     0.342250000000     0.934000000000     0          
O        O      0.952250000000     0.338350000000     0.983300000000     0          
O        O      0.951900000000     0.384250000000     0.581700000000     0          
O        O      0.500000000000     0.376750000000     0.519900000000     0          
O        O      0.500000000000     0.377150000000     0.948150000000     0          
O        O      0.500000000000     0.338150000000     0.569650000000     0          
O        O      0.500000000000     0.340800000000     0.640300000000     0          
T        Si     0.943150000000     0.235050000000     0.537200000000     0          
T        Si     0.909650000000     0.281200000000     0.592100000000     0          
T        Si     0.855350000000     0.325800000000     0.544050000000     0          
T        Si     0.902650000000     0.324850000000     0.968200000000     0          
T        Si     0.893600000000     0.380900000000     0.583700000000     0          
T        Si     0.500000000000     0.357650000000     0.983800000000     0          
T        Si     0.500000000000     0.371300000000     0.563250000000     0          
T        Si     0.500000000000     0.319650000000     0.606300000000     0          
T        Si     0.750000000000     0.341150000000     0.565800000000     0          
O        O      0.676350000000     0.250000000000     0.750000000000     0          
O        O      0.684000000000     0.245050000000     0.821850000000     0          
O        O      0.662450000000     0.293050000000     0.793350000000     0          
O        O      0.625000000000     0.228750000000     0.875000000000     0          
O        O      0.629250000000     0.201250000000     0.812550000000     0          
O        O      0.702100000000     0.199450000000     0.858450000000     0          
O        O      0.613100000000     0.174800000000     0.750550000000     0          
O        O      0.628650000000     0.146300000000     0.810700000000     0          
O        O      0.547700000000     0.174850000000     0.801500000000     0          
O        O      0.632200000000     0.157750000000     0.684000000000     0          
O        O      0.702250000000     0.161650000000     0.733300000000     0          
O        O      0.625000000000     0.122750000000     0.875000000000     0          
O        O      0.701900000000     0.115750000000     0.831700000000     0          
T        Si     0.693150000000     0.264950000000     0.787200000000     0          
T        Si     0.659650000000     0.218800000000     0.842100000000     0          
T        Si     0.605350000000     0.174200000000     0.794050000000     0          
T        Si     0.652650000000     0.175150000000     0.718200000000     0          
T        Si     0.643600000000     0.119100000000     0.833700000000     0          
O        O      0.573650000000     0.250000000000     0.500000000000     0          
O        O      0.566000000000     0.254950000000     0.571850000000     0          
O        O      0.587550000000     0.206950000000     0.543350000000     0          
O        O      0.625000000000     0.271250000000     0.625000000000     0          
O        O      0.620750000000     0.298750000000     0.562550000000     0          
O        O      0.547900000000     0.300550000000     0.608450000000     0          
O        O      0.636900000000     0.325200000000     0.500550000000     0          
O        O      0.621350000000     0.353700000000     0.560700000000     0          
O        O      0.702300000000     0.325150000000     0.551500000000     0          
O        O      0.617800000000     0.342250000000     0.934000000000     0          
O        O      0.547750000000     0.338350000000     0.983300000000     0          
O        O      0.625000000000     0.377250000000     0.625000000000     0          
O        O      0.548100000000     0.384250000000     0.581700000000     0          
T        Si     0.556850000000     0.235050000000     0.537200000000     0          
T        Si     0.590350000000     0.281200000000     0.592100000000     0          
T        Si     0.644650000000     0.325800000000     0.544050000000     0          
T        Si     0.597350000000     0.324850000000     0.968200000000     0          
T        Si     0.606400000000     0.380900000000     0.583700000000     0          
O        O      0.684000000000     0.254950000000     0.678150000000     0          
O        O      0.662450000000     0.206950000000     0.706650000000     0          
O        O      0.629250000000     0.298750000000     0.687450000000     0          
O        O      0.702100000000     0.300550000000     0.641550000000     0          
O        O      0.613100000000     0.325200000000     0.749450000000     0          
O        O      0.628650000000     0.353700000000     0.689300000000     0          
O        O      0.547700000000     0.325150000000     0.698500000000     0          
O        O      0.632200000000     0.342250000000     0.816000000000     0          
O        O      0.702250000000     0.338350000000     0.766700000000     0          
O        O      0.701900000000     0.384250000000     0.668300000000     0          
T        Si     0.693150000000     0.235050000000     0.712800000000     0          
T        Si     0.659650000000     0.281200000000     0.657900000000     0          
T        Si     0.605350000000     0.325800000000     0.705950000000     0          
T        Si     0.652650000000     0.324850000000     0.781800000000     0          
T        Si     0.643600000000     0.380900000000     0.666300000000     0          
O        O      0.566000000000     0.245050000000     0.928150000000     0          
O        O      0.587550000000     0.293050000000     0.956650000000     0          
O        O      0.620750000000     0.201250000000     0.937450000000     0          
O        O      0.547900000000     0.199450000000     0.891550000000     0          
O        O      0.636900000000     0.174800000000     0.999450000000     0          
O        O      0.621350000000     0.146300000000     0.939300000000     0          
O        O      0.702300000000     0.174850000000     0.948500000000     0          
O        O      0.617800000000     0.157750000000     0.566000000000     0          
O        O      0.547750000000     0.161650000000     0.516700000000     0          
O        O      0.548100000000     0.115750000000     0.918300000000     0          
T        Si     0.556850000000     0.264950000000     0.962800000000     0          
T        Si     0.590350000000     0.218800000000     0.907900000000     0          
T        Si     0.644650000000     0.174200000000     0.955950000000     0          
T        Si     0.597350000000     0.175150000000     0.531800000000     0          
T        Si     0.606400000000     0.119100000000     0.916300000000     0          
O        O      0.573650000000     0.000000000000     0.750000000000     0          
O        O      0.500000000000     0.477350000000     0.715400000000     0          
O        O      0.566000000000     0.004950000000     0.678150000000     0          
O        O      0.587550000000     0.456950000000     0.706650000000     0          
O        O      0.625000000000     0.021250000000     0.625000000000     0          
O        O      0.620750000000     0.048750000000     0.687450000000     0          
O        O      0.547900000000     0.050550000000     0.641550000000     0          
O        O      0.636900000000     0.075200000000     0.749450000000     0          
O        O      0.621350000000     0.103700000000     0.689300000000     0          
O        O      0.702300000000     0.075150000000     0.698500000000     0          
O        O      0.617800000000     0.092250000000     0.816000000000     0          
O        O      0.547750000000     0.088350000000     0.766700000000     0          
O        O      0.625000000000     0.127250000000     0.625000000000     0          
O        O      0.548100000000     0.134250000000     0.668300000000     0          
O        O      0.500000000000     0.126750000000     0.730100000000     0          
O        O      0.500000000000     0.127150000000     0.801850000000     0          
O        O      0.500000000000     0.088150000000     0.680350000000     0          
O        O      0.500000000000     0.090800000000     0.609700000000     0          
T        Si     0.556850000000     0.485050000000     0.712800000000     0          
T        Si     0.590350000000     0.031200000000     0.657900000000     0          
T        Si     0.644650000000     0.075800000000     0.705950000000     0          
T        Si     0.597350000000     0.074850000000     0.781800000000     0          
T        Si     0.606400000000     0.130900000000     0.666300000000     0          
T        Si     0.500000000000     0.107650000000     0.766200000000     0          
T        Si     0.500000000000     0.121300000000     0.686750000000     0          
T        Si     0.500000000000     0.069650000000     0.643700000000     0          
T        Si     0.750000000000     0.091150000000     0.684200000000     0          
O        O      0.676350000000     0.000000000000     0.500000000000     0          
O        O      0.750000000000     0.022650000000     0.965400000000     0          
O        O      0.684000000000     0.495050000000     0.928150000000     0          
O        O      0.662450000000     0.043050000000     0.956650000000     0          
O        O      0.625000000000     0.478750000000     0.875000000000     0          
O        O      0.629250000000     0.451250000000     0.937450000000     0          
O        O      0.702100000000     0.449450000000     0.891550000000     0          
O        O      0.613100000000     0.424800000000     0.999450000000     0          
O        O      0.628650000000     0.396300000000     0.939300000000     0          
O        O      0.547700000000     0.424850000000     0.948500000000     0          
O        O      0.632200000000     0.407750000000     0.566000000000     0          
O        O      0.702250000000     0.411650000000     0.516700000000     0          
O        O      0.625000000000     0.372750000000     0.875000000000     0          
O        O      0.701900000000     0.365750000000     0.918300000000     0          
O        O      0.750000000000     0.373250000000     0.980100000000     0          
O        O      0.750000000000     0.372850000000     0.551850000000     0          
O        O      0.750000000000     0.411850000000     0.930350000000     0          
O        O      0.750000000000     0.409200000000     0.859700000000     0          
T        Si     0.693150000000     0.014950000000     0.962800000000     0          
T        Si     0.659650000000     0.468800000000     0.907900000000     0          
T        Si     0.605350000000     0.424200000000     0.955950000000     0          
T        Si     0.652650000000     0.425150000000     0.531800000000     0          
T        Si     0.643600000000     0.369100000000     0.916300000000     0          
T        Si     0.750000000000     0.392350000000     0.516200000000     0          
T        Si     0.750000000000     0.378700000000     0.936750000000     0          
T        Si     0.750000000000     0.430350000000     0.893700000000     0          
T        Si     0.500000000000     0.408850000000     0.934200000000     0          
O        O      0.500000000000     0.022650000000     0.784600000000     0          
O        O      0.566000000000     0.495050000000     0.821850000000     0          
O        O      0.587550000000     0.043050000000     0.793350000000     0          
O        O      0.620750000000     0.451250000000     0.812550000000     0          
O        O      0.547900000000     0.449450000000     0.858450000000     0          
O        O      0.636900000000     0.424800000000     0.750550000000     0          
O        O      0.621350000000     0.396300000000     0.810700000000     0          
O        O      0.702300000000     0.424850000000     0.801500000000     0          
O        O      0.617800000000     0.407750000000     0.684000000000     0          
O        O      0.547750000000     0.411650000000     0.733300000000     0          
O        O      0.548100000000     0.365750000000     0.831700000000     0          
O        O      0.500000000000     0.373250000000     0.769900000000     0          
O        O      0.500000000000     0.372850000000     0.698150000000     0          
O        O      0.500000000000     0.411850000000     0.819650000000     0          
O        O      0.500000000000     0.409200000000     0.890300000000     0          
T        Si     0.556850000000     0.014950000000     0.787200000000     0          
T        Si     0.590350000000     0.468800000000     0.842100000000     0          
T        Si     0.644650000000     0.424200000000     0.794050000000     0          
T        Si     0.597350000000     0.425150000000     0.718200000000     0          
T        Si     0.606400000000     0.369100000000     0.833700000000     0          
T        Si     0.500000000000     0.392350000000     0.733800000000     0          
T        Si     0.500000000000     0.378700000000     0.813250000000     0          
T        Si     0.500000000000     0.430350000000     0.856300000000     0          
T        Si     0.750000000000     0.408850000000     0.815800000000     0          
O        O      0.750000000000     0.477350000000     0.534600000000     0          
O        O      0.684000000000     0.004950000000     0.571850000000     0          
O        O      0.662450000000     0.456950000000     0.543350000000     0          
O        O      0.629250000000     0.048750000000     0.562550000000     0          
O        O      0.702100000000     0.050550000000     0.608450000000     0          
O        O      0.613100000000     0.075200000000     0.500550000000     0          
O        O      0.628650000000     0.103700000000     0.560700000000     0          
O        O      0.547700000000     0.075150000000     0.551500000000     0          
O        O      0.632200000000     0.092250000000     0.934000000000     0          
O        O      0.702250000000     0.088350000000     0.983300000000     0          
O        O      0.701900000000     0.134250000000     0.581700000000     0          
O        O      0.750000000000     0.126750000000     0.519900000000     0          
O        O      0.750000000000     0.127150000000     0.948150000000     0          
O        O      0.750000000000     0.088150000000     0.569650000000     0          
O        O      0.750000000000     0.090800000000     0.640300000000     0          
T        Si     0.693150000000     0.485050000000     0.537200000000     0          
T        Si     0.659650000000     0.031200000000     0.592100000000     0          
T        Si     0.605350000000     0.075800000000     0.544050000000     0          
T        Si     0.652650000000     0.074850000000     0.968200000000     0          
T        Si     0.643600000000     0.130900000000     0.583700000000     0          
T        Si     0.750000000000     0.107650000000     0.983800000000     0          
T        Si     0.750000000000     0.121300000000     0.563250000000     0          
T        Si     0.750000000000     0.069650000000     0.606300000000     0          
T        Si     0.500000000000     0.091150000000     0.565800000000     0          
O        O      0.926350000000     0.000000000000     0.750000000000     0          
O        O      0.934000000000     0.495050000000     0.821850000000     0          
O        O      0.912450000000     0.043050000000     0.793350000000     0          
O        O      0.875000000000     0.478750000000     0.875000000000     0          
O        O      0.879250000000     0.451250000000     0.812550000000     0          
O        O      0.952100000000     0.449450000000     0.858450000000     0          
O        O      0.863100000000     0.424800000000     0.750550000000     0          
O        O      0.878650000000     0.396300000000     0.810700000000     0          
O        O      0.797700000000     0.424850000000     0.801500000000     0          
O        O      0.882200000000     0.407750000000     0.684000000000     0          
O        O      0.952250000000     0.411650000000     0.733300000000     0          
O        O      0.875000000000     0.372750000000     0.875000000000     0          
O        O      0.951900000000     0.365750000000     0.831700000000     0          
T        Si     0.943150000000     0.014950000000     0.787200000000     0          
T        Si     0.909650000000     0.468800000000     0.842100000000     0          
T        Si     0.855350000000     0.424200000000     0.794050000000     0          
T        Si     0.902650000000     0.425150000000     0.718200000000     0          
T        Si     0.893600000000     0.369100000000     0.833700000000     0          
O        O      0.823650000000     0.000000000000     0.500000000000     0          
O        O      0.816000000000     0.004950000000     0.571850000000     0          
O        O      0.837550000000     0.456950000000     0.543350000000     0          
O        O      0.875000000000     0.021250000000     0.625000000000     0          
O        O      0.870750000000     0.048750000000     0.562550000000     0          
O        O      0.797900000000     0.050550000000     0.608450000000     0          
O        O      0.886900000000     0.075200000000     0.500550000000     0          
O        O      0.871350000000     0.103700000000     0.560700000000     0          
O        O      0.952300000000     0.075150000000     0.551500000000     0          
O        O      0.867800000000     0.092250000000     0.934000000000     0          
O        O      0.797750000000     0.088350000000     0.983300000000     0          
O        O      0.875000000000     0.127250000000     0.625000000000     0          
O        O      0.798100000000     0.134250000000     0.581700000000     0          
T        Si     0.806850000000     0.485050000000     0.537200000000     0          
T        Si     0.840350000000     0.031200000000     0.592100000000     0          
T        Si     0.894650000000     0.075800000000     0.544050000000     0          
T        Si     0.847350000000     0.074850000000     0.968200000000     0          
T        Si     0.856400000000     0.130900000000     0.583700000000     0          
O        O      0.934000000000     0.004950000000     0.678150000000     0          
O        O      0.912450000000     0.456950000000     0.706650000000     0          
O        O      0.879250000000     0.048750000000     0.687450000000     0          
O        O      0.952100000000     0.050550000000     0.641550000000     0          
O        O      0.863100000000     0.075200000000     0.749450000000     0          
O        O      0.878650000000     0.103700000000     0.689300000000     0          
O        O      0.797700000000     0.075150000000     0.698500000000     0          
O        O      0.882200000000     0.092250000000     0.816000000000     0          
O        O      0.952250000000     0.088350000000     0.766700000000     0          
O        O      0.951900000000     0.134250000000     0.668300000000     0          
T        Si     0.943150000000     0.485050000000     0.712800000000     0          
T        Si     0.909650000000     0.031200000000     0.657900000000     0          
T        Si     0.855350000000     0.075800000000     0.705950000000     0          
T        Si     0.902650000000     0.074850000000     0.781800000000     0          
T        Si     0.893600000000     0.130900000000     0.666300000000     0          
O        O      0.816000000000     0.495050000000     0.928150000000     0          
O        O      0.837550000000     0.043050000000     0.956650000000     0          
O        O      0.870750000000     0.451250000000     0.937450000000     0          
O        O      0.797900000000     0.449450000000     0.891550000000     0          
O        O      0.886900000000     0.424800000000     0.999450000000     0          
O        O      0.871350000000     0.396300000000     0.939300000000     0          
O        O      0.952300000000     0.424850000000     0.948500000000     0          
O        O      0.867800000000     0.407750000000     0.566000000000     0          
O        O      0.797750000000     0.411650000000     0.516700000000     0          
O        O      0.798100000000     0.365750000000     0.918300000000     0          
T        Si     0.806850000000     0.014950000000     0.962800000000     0          
T        Si     0.840350000000     0.468800000000     0.907900000000     0          
T        Si     0.894650000000     0.424200000000     0.955950000000     0          
T        Si     0.847350000000     0.425150000000     0.531800000000     0          
T        Si     0.856400000000     0.369100000000     0.916300000000     0          
O        O      0.823650000000     0.750000000000     0.250000000000     0          
O        O      0.750000000000     0.727350000000     0.215400000000     0          
O        O      0.816000000000     0.754950000000     0.178150000000     0          
O        O      0.837550000000     0.706950000000     0.206650000000     0          
O        O      0.875000000000     0.771250000000     0.125000000000     0          
O        O      0.870750000000     0.798750000000     0.187450000000     0          
O        O      0.797900000000     0.800550000000     0.141550000000     0          
O        O      0.886900000000     0.825200000000     0.249450000000     0          
O        O      0.871350000000     0.853700000000     0.189300000000     0          
O        O      0.952300000000     0.825150000000     0.198500000000     0          
O        O      0.867800000000     0.842250000000     0.316000000000     0          
O        O      0.797750000000     0.838350000000     0.266700000000     0          
O        O      0.875000000000     0.877250000000     0.125000000000     0          
O        O      0.798100000000     0.884250000000     0.168300000000     0          
O        O      0.750000000000     0.876750000000     0.230100000000     0          
O        O      0.750000000000     0.877150000000     0.301850000000     0          
O        O      0.750000000000     0.838150000000     0.180350000000     0          
O        O      0.750000000000     0.840800000000     0.109700000000     0          
T        Si     0.806850000000     0.735050000000     0.212800000000     0          
T        Si     0.840350000000     0.781200000000     0.157900000000     0          
T        Si     0.894650000000     0.825800000000     0.205950000000     0          
T        Si     0.847350000000     0.824850000000     0.281800000000     0          
T        Si     0.856400000000     0.880900000000     0.166300000000     0          
T        Si     0.750000000000     0.857650000000     0.266200000000     0          
T        Si     0.750000000000     0.871300000000     0.186750000000     0          
T        Si     0.750000000000     0.819650000000     0.143700000000     0          
T        Si     0.500000000000     0.841150000000     0.184200000000     0          
O        O      0.926350000000     0.750000000000     0.000000000000     0          
O        O      0.500000000000     0.772650000000     0.465400000000     0          
O        O      0.934000000000     0.745050000000     0.428150000000     0          
O        O      0.912450000000     0.793050000000     0.456650000000     0          
O        O      0.875000000000     0.728750000000     0.375000000000     0          
O        O      0.879250000000     0.701250000000     0.437450000000     0          
O        O      0.952100000000     0.699450000000     0.391550000000     0          
O        O      0.863100000000     0.674800000000     0.499450000000     0          
O        O      0.878650000000     0.646300000000     0.439300000000     0          
O        O      0.797700000000     0.674850000000     0.448500000000     0          
O        O      0.882200000000     0.657750000000     0.066000000000     0          
O        O      0.952250000000     0.661650000000     0.016700000000     0          
O        O      0.875000000000     0.622750000000     0.375000000000     0          
O        O      0.951900000000     0.615750000000     0.418300000000     0          
O        O      0.500000000000     0.623250000000     0.480100000000     0          
O        O      0.500000000000     0.622850000000     0.051850000000     0          
O        O      0.500000000000     0.661850000000     0.430350000000     0          
O        O      0.500000000000     0.659200000000     0.359700000000     0          
T        Si     0.943150000000     0.764950000000     0.462800000000     0          
T        Si     0.909650000000     0.718800000000     0.407900000000     0          
T        Si     0.855350000000     0.674200000000     0.455950000000     0          
T        Si     0.902650000000     0.675150000000     0.031800000000     0          
T        Si     0.893600000000     0.619100000000     0.416300000000     0          
T        Si     0.500000000000     0.642350000000     0.016200000000     0          
T        Si     0.500000000000     0.628700000000     0.436750000000     0          
T        Si     0.500000000000     0.680350000000     0.393700000000     0          
T        Si     0.750000000000     0.658850000000     0.434200000000     0          
O        O      0.750000000000     0.772650000000     0.284600000000     0          
O        O      0.816000000000     0.745050000000     0.321850000000     0          
O        O      0.837550000000     0.793050000000     0.293350000000     0          
O        O      0.870750000000     0.701250000000     0.312550000000     0          
O        O      0.797900000000     0.699450000000     0.358450000000     0          
O        O      0.886900000000     0.674800000000     0.250550000000     0          
O        O      0.871350000000     0.646300000000     0.310700000000     0          
O        O      0.952300000000     0.674850000000     0.301500000000     0          
O        O      0.867800000000     0.657750000000     0.184000000000     0          
O        O      0.797750000000     0.661650000000     0.233300000000     0          
O        O      0.798100000000     0.615750000000     0.331700000000     0          
O        O      0.750000000000     0.623250000000     0.269900000000     0          
O        O      0.750000000000     0.622850000000     0.198150000000     0          
O        O      0.750000000000     0.661850000000     0.319650000000     0          
O        O      0.750000000000     0.659200000000     0.390300000000     0          
T        Si     0.806850000000     0.764950000000     0.287200000000     0          
T        Si     0.840350000000     0.718800000000     0.342100000000     0          
T        Si     0.894650000000     0.674200000000     0.294050000000     0          
T        Si     0.847350000000     0.675150000000     0.218200000000     0          
T        Si     0.856400000000     0.619100000000     0.333700000000     0          
T        Si     0.750000000000     0.642350000000     0.233800000000     0          
T        Si     0.750000000000     0.628700000000     0.313250000000     0          
T        Si     0.750000000000     0.680350000000     0.356300000000     0          
T        Si     0.500000000000     0.658850000000     0.315800000000     0          
O        O      0.500000000000     0.727350000000     0.034600000000     0          
O        O      0.934000000000     0.754950000000     0.071850000000     0          
O        O      0.912450000000     0.706950000000     0.043350000000     0          
O        O      0.879250000000     0.798750000000     0.062550000000     0          
O        O      0.952100000000     0.800550000000     0.108450000000     0          
O        O      0.863100000000     0.825200000000     0.000550000000     0          
O        O      0.878650000000     0.853700000000     0.060700000000     0          
O        O      0.797700000000     0.825150000000     0.051500000000     0          
O        O      0.882200000000     0.842250000000     0.434000000000     0          
O        O      0.952250000000     0.838350000000     0.483300000000     0          
O        O      0.951900000000     0.884250000000     0.081700000000     0          
O        O      0.500000000000     0.876750000000     0.019900000000     0          
O        O      0.500000000000     0.877150000000     0.448150000000     0          
O        O      0.500000000000     0.838150000000     0.069650000000     0          
O        O      0.500000000000     0.840800000000     0.140300000000     0          
T        Si     0.943150000000     0.735050000000     0.037200000000     0          
T        Si     0.909650000000     0.781200000000     0.092100000000     0          
T        Si     0.855350000000     0.825800000000     0.044050000000     0          
T        Si     0.902650000000     0.824850000000     0.468200000000     0          
T        Si     0.893600000000     0.880900000000     0.083700000000     0          
T        Si     0.500000000000     0.857650000000     0.483800000000     0          
T        Si     0.500000000000     0.871300000000     0.063250000000     0          
T        Si     0.500000000000     0.819650000000     0.106300000000     0          
T        Si     0.750000000000     0.841150000000     0.065800000000     0          
O        O      0.676350000000     0.750000000000     0.250000000000     0          
O        O      0.684000000000     0.745050000000     0.321850000000     0          
O        O      0.662450000000     0.793050000000     0.293350000000     0          
O        O      0.625000000000     0.728750000000     0.375000000000     0          
O        O      0.629250000000     0.701250000000     0.312550000000     0          
O        O      0.702100000000     0.699450000000     0.358450000000     0          
O        O      0.613100000000     0.674800000000     0.250550000000     0          
O        O      0.628650000000     0.646300000000     0.310700000000     0          
O        O      0.547700000000     0.674850000000     0.301500000000     0          
O        O      0.632200000000     0.657750000000     0.184000000000     0          
O        O      0.702250000000     0.661650000000     0.233300000000     0          
O        O      0.625000000000     0.622750000000     0.375000000000     0          
O        O      0.701900000000     0.615750000000     0.331700000000     0          
T        Si     0.693150000000     0.764950000000     0.287200000000     0          
T        Si     0.659650000000     0.718800000000     0.342100000000     0          
T        Si     0.605350000000     0.674200000000     0.294050000000     0          
T        Si     0.652650000000     0.675150000000     0.218200000000     0          
T        Si     0.643600000000     0.619100000000     0.333700000000     0          
O        O      0.573650000000     0.750000000000     0.000000000000     0          
O        O      0.566000000000     0.754950000000     0.071850000000     0          
O        O      0.587550000000     0.706950000000     0.043350000000     0          
O        O      0.625000000000     0.771250000000     0.125000000000     0          
O        O      0.620750000000     0.798750000000     0.062550000000     0          
O        O      0.547900000000     0.800550000000     0.108450000000     0          
O        O      0.636900000000     0.825200000000     0.000550000000     0          
O        O      0.621350000000     0.853700000000     0.060700000000     0          
O        O      0.702300000000     0.825150000000     0.051500000000     0          
O        O      0.617800000000     0.842250000000     0.434000000000     0          
O        O      0.547750000000     0.838350000000     0.483300000000     0          
O        O      0.625000000000     0.877250000000     0.125000000000     0          
O        O      0.548100000000     0.884250000000     0.081700000000     0          
T        Si     0.556850000000     0.735050000000     0.037200000000     0          
T        Si     0.590350000000     0.781200000000     0.092100000000     0          
T        Si     0.644650000000     0.825800000000     0.044050000000     0          
T        Si     0.597350000000     0.824850000000     0.468200000000     0          
T        Si     0.606400000000     0.880900000000     0.083700000000     0          
O        O      0.684000000000     0.754950000000     0.178150000000     0          
O        O      0.662450000000     0.706950000000     0.206650000000     0          
O        O      0.629250000000     0.798750000000     0.187450000000     0          
O        O      0.702100000000     0.800550000000     0.141550000000     0          
O        O      0.613100000000     0.825200000000     0.249450000000     0          
O        O      0.628650000000     0.853700000000     0.189300000000     0          
O        O      0.547700000000     0.825150000000     0.198500000000     0          
O        O      0.632200000000     0.842250000000     0.316000000000     0          
O        O      0.702250000000     0.838350000000     0.266700000000     0          
O        O      0.701900000000     0.884250000000     0.168300000000     0          
T        Si     0.693150000000     0.735050000000     0.212800000000     0          
T        Si     0.659650000000     0.781200000000     0.157900000000     0          
T        Si     0.605350000000     0.825800000000     0.205950000000     0          
T        Si     0.652650000000     0.824850000000     0.281800000000     0          
T        Si     0.643600000000     0.880900000000     0.166300000000     0          
O        O      0.566000000000     0.745050000000     0.428150000000     0          
O        O      0.587550000000     0.793050000000     0.456650000000     0          
O        O      0.620750000000     0.701250000000     0.437450000000     0          
O        O      0.547900000000     0.699450000000     0.391550000000     0          
O        O      0.636900000000     0.674800000000     0.499450000000     0          
O        O      0.621350000000     0.646300000000     0.439300000000     0          
O        O      0.702300000000     0.674850000000     0.448500000000     0          
O        O      0.617800000000     0.657750000000     0.066000000000     0          
O        O      0.547750000000     0.661650000000     0.016700000000     0          
O        O      0.548100000000     0.615750000000     0.418300000000     0          
T        Si     0.556850000000     0.764950000000     0.462800000000     0          
T        Si     0.590350000000     0.718800000000     0.407900000000     0          
T        Si     0.644650000000     0.674200000000     0.455950000000     0          
T        Si     0.597350000000     0.675150000000     0.031800000000     0          
T        Si     0.606400000000     0.619100000000     0.416300000000     0          
O        O      0.573650000000     0.500000000000     0.250000000000     0          
O        O      0.500000000000     0.977350000000     0.215400000000     0          
O        O      0.566000000000     0.504950000000     0.178150000000     0          
O        O      0.587550000000     0.956950000000     0.206650000000     0          
O        O      0.625000000000     0.521250000000     0.125000000000     0          
O        O      0.620750000000     0.548750000000     0.187450000000     0          
O        O      0.547900000000     0.550550000000     0.141550000000     0          
O        O      0.636900000000     0.575200000000     0.249450000000     0          
O        O      0.621350000000     0.603700000000     0.189300000000     0          
O        O      0.702300000000     0.575150000000     0.198500000000     0          
O        O      0.617800000000     0.592250000000     0.316000000000     0          
O        O      0.547750000000     0.588350000000     0.266700000000     0          
O        O      0.625000000000     0.627250000000     0.125000000000     0          
O        O      0.548100000000     0.634250000000     0.168300000000     0          
O        O      0.500000000000     0.626750000000     0.230100000000     0          
O        O      0.500000000000     0.627150000000     0.301850000000     0          
O        O      0.500000000000     0.588150000000     0.180350000000     0          
O        O      0.500000000000     0.590800000000     0.109700000000     0          
T        Si     0.556850000000     0.985050000000     0.212800000000     0          
T        Si     0.590350000000     0.531200000000     0.157900000000     0          
T        Si     0.644650000000     0.575800000000     0.205950000000     0          
T        Si     0.597350000000     0.574850000000     0.281800000000     0          
T        Si     0.606400000000     0.630900000000     0.166300000000     0          
T        Si     0.500000000000     0.607650000000     0.266200000000     0          
T        Si     0.500000000000     0.621300000000     0.186750000000     0          
T        Si     0.500000000000     0.569650000000     0.143700000000     0          
T        Si     0.750000000000     0.591150000000     0.184200000000     0          
O        O      0.676350000000     0.500000000000     0.000000000000     0          
O        O      0.750000000000     0.522650000000     0.465400000000     0          
O        O      0.684000000000     0.995050000000     0.428150000000     0          
O        O      0.662450000000     0.543050000000     0.456650000000     0          
O        O      0.625000000000     0.978750000000     0.375000000000     0          
O        O      0.629250000000     0.951250000000     0.437450000000     0          
O        O      0.702100000000     0.949450000000     0.391550000000     0          
O        O      0.613100000000     0.924800000000     0.499450000000     0          
O        O      0.628650000000     0.896300000000     0.439300000000     0          
O        O      0.547700000000     0.924850000000     0.448500000000     0          
O        O      0.632200000000     0.907750000000     0.066000000000     0          
O        O      0.702250000000     0.911650000000     0.016700000000     0          
O        O      0.625000000000     0.872750000000     0.375000000000     0          
O        O      0.701900000000     0.865750000000     0.418300000000     0          
O        O      0.750000000000     0.873250000000     0.480100000000     0          
O        O      0.750000000000     0.872850000000     0.051850000000     0          
O        O      0.750000000000     0.911850000000     0.430350000000     0          
O        O      0.750000000000     0.909200000000     0.359700000000     0          
T        Si     0.693150000000     0.514950000000     0.462800000000     0          
T        Si     0.659650000000     0.968800000000     0.407900000000     0          
T        Si     0.605350000000     0.924200000000     0.455950000000     0          
T        Si     0.652650000000     0.925150000000     0.031800000000     0          
T        Si     0.643600000000     0.869100000000     0.416300000000     0          
T        Si     0.750000000000     0.892350000000     0.016200000000     0          
T        Si     0.750000000000     0.878700000000     0.436750000000     0          
T        Si     0.750000000000     0.930350000000     0.393700000000     0          
T        Si     0.500000000000     0.908850000000     0.434200000000     0          
O        O      0.500000000000     0.522650000000     0.284600000000     0          
O        O      0.566000000000     0.995050000000     0.321850000000     0          
O        O      0.587550000000     0.543050000000     0.293350000000     0          
O        O      0.620750000000     0.951250000000     0.312550000000     0          
O        O      0.547900000000     0.949450000000     0.358450000000     0          
O        O      0.636900000000     0.924800000000     0.250550000000     0          
O        O      0.621350000000     0.896300000000     0.310700000000     0          
O        O      0.702300000000     0.924850000000     0.301500000000     0          
O        O      0.617800000000     0.907750000000     0.184000000000     0          
O        O      0.547750000000     0.911650000000     0.233300000000     0          
O        O      0.548100000000     0.865750000000     0.331700000000     0          
O        O      0.500000000000     0.873250000000     0.269900000000     0          
O        O      0.500000000000     0.872850000000     0.198150000000     0          
O        O      0.500000000000     0.911850000000     0.319650000000     0          
O        O      0.500000000000     0.909200000000     0.390300000000     0          
T        Si     0.556850000000     0.514950000000     0.287200000000     0          
T        Si     0.590350000000     0.968800000000     0.342100000000     0          
T        Si     0.644650000000     0.924200000000     0.294050000000     0          
T        Si     0.597350000000     0.925150000000     0.218200000000     0          
T        Si     0.606400000000     0.869100000000     0.333700000000     0          
T        Si     0.500000000000     0.892350000000     0.233800000000     0          
T        Si     0.500000000000     0.878700000000     0.313250000000     0          
T        Si     0.500000000000     0.930350000000     0.356300000000     0          
T        Si     0.750000000000     0.908850000000     0.315800000000     0          
O        O      0.750000000000     0.977350000000     0.034600000000     0          
O        O      0.684000000000     0.504950000000     0.071850000000     0          
O        O      0.662450000000     0.956950000000     0.043350000000     0          
O        O      0.629250000000     0.548750000000     0.062550000000     0          
O        O      0.702100000000     0.550550000000     0.108450000000     0          
O        O      0.613100000000     0.575200000000     0.000550000000     0          
O        O      0.628650000000     0.603700000000     0.060700000000     0          
O        O      0.547700000000     0.575150000000     0.051500000000     0          
O        O      0.632200000000     0.592250000000     0.434000000000     0          
O        O      0.702250000000     0.588350000000     0.483300000000     0          
O        O      0.701900000000     0.634250000000     0.081700000000     0          
O        O      0.750000000000     0.626750000000     0.019900000000     0          
O        O      0.750000000000     0.627150000000     0.448150000000     0          
O        O      0.750000000000     0.588150000000     0.069650000000     0          
O        O      0.750000000000     0.590800000000     0.140300000000     0          
T        Si     0.693150000000     0.985050000000     0.037200000000     0          
T        Si     0.659650000000     0.531200000000     0.092100000000     0          
T        Si     0.605350000000     0.575800000000     0.044050000000     0          
T        Si     0.652650000000     0.574850000000     0.468200000000     0          
T        Si     0.643600000000     0.630900000000     0.083700000000     0          
T        Si     0.750000000000     0.607650000000     0.483800000000     0          
T        Si     0.750000000000     0.621300000000     0.063250000000     0          
T        Si     0.750000000000     0.569650000000     0.106300000000     0          
T        Si     0.500000000000     0.591150000000     0.065800000000     0          
O        O      0.926350000000     0.500000000000     0.250000000000     0          
O        O      0.934000000000     0.995050000000     0.321850000000     0          
O        O      0.912450000000     0.543050000000     0.293350000000     0          
O        O      0.875000000000     0.978750000000     0.375000000000     0          
O        O      0.879250000000     0.951250000000     0.312550000000     0          
O        O      0.952100000000     0.949450000000     0.358450000000     0          
O        O      0.863100000000     0.924800000000     0.250550000000     0          
O        O      0.878650000000     0.896300000000     0.310700000000     0          
O        O      0.797700000000     0.924850000000     0.301500000000     0          
O        O      0.882200000000     0.907750000000     0.184000000000     0          
O        O      0.952250000000     0.911650000000     0.233300000000     0          
O        O      0.875000000000     0.872750000000     0.375000000000     0          
O        O      0.951900000000     0.865750000000     0.331700000000     0          
T        Si     0.943150000000     0.514950000000     0.287200000000     0          
T        Si     0.909650000000     0.968800000000     0.342100000000     0          
T        Si     0.855350000000     0.924200000000     0.294050000000     0          
T        Si     0.902650000000     0.925150000000     0.218200000000     0          
T        Si     0.893600000000     0.869100000000     0.333700000000     0          
O        O      0.823650000000     0.500000000000     0.000000000000     0          
O        O      0.816000000000     0.504950000000     0.071850000000     0          
O        O      0.837550000000     0.956950000000     0.043350000000     0          
O        O      0.875000000000     0.521250000000     0.125000000000     0          
O        O      0.870750000000     0.548750000000     0.062550000000     0          
O        O      0.797900000000     0.550550000000     0.108450000000     0          
O        O      0.886900000000     0.575200000000     0.000550000000     0          
O        O      0.871350000000     0.603700000000     0.060700000000     0          
O        O      0.952300000000     0.575150000000     0.051500000000     0          
O        O      0.867800000000     0.592250000000     0.434000000000     0          
O        O      0.797750000000     0.588350000000     0.483300000000     0          
O        O      0.875000000000     0.627250000000     0.125000000000     0          
O        O      0.798100000000     0.634250000000     0.081700000000     0          
T        Si     0.806850000000     0.985050000000     0.037200000000     0          
T        Si     0.840350000000     0.531200000000     0.092100000000     0          
T        Si     0.894650000000     0.575800000000     0.044050000000     0          
T        Si     0.847350000000     0.574850000000     0.468200000000     0          
T        Si     0.856400000000     0.630900000000     0.083700000000     0          
O        O      0.934000000000     0.504950000000     0.178150000000     0          
O        O      0.912450000000     0.956950000000     0.206650000000     0          
O        O      0.879250000000     0.548750000000     0.187450000000     0          
O        O      0.952100000000     0.550550000000     0.141550000000     0          
O        O      0.863100000000     0.575200000000     0.249450000000     0          
O        O      0.878650000000     0.603700000000     0.189300000000     0          
O        O      0.797700000000     0.575150000000     0.198500000000     0          
O        O      0.882200000000     0.592250000000     0.316000000000     0          
O        O      0.952250000000     0.588350000000     0.266700000000     0          
O        O      0.951900000000     0.634250000000     0.168300000000     0          
T        Si     0.943150000000     0.985050000000     0.212800000000     0          
T        Si     0.909650000000     0.531200000000     0.157900000000     0          
T        Si     0.855350000000     0.575800000000     0.205950000000     0          
T        Si     0.902650000000     0.574850000000     0.281800000000     0          
T        Si     0.893600000000     0.630900000000     0.166300000000     0          
O        O      0.816000000000     0.995050000000     0.428150000000     0          
O        O      0.837550000000     0.543050000000     0.456650000000     0          
O        O      0.870750000000     0.951250000000     0.437450000000     0          
O        O      0.797900000000     0.949450000000     0.391550000000     0          
O        O      0.886900000000     0.924800000000     0.499450000000     0          
O        O      0.871350000000     0.896300000000     0.439300000000     0          
O        O      0.952300000000     0.924850000000     0.448500000000     0          
O        O      0.867800000000     0.907750000000     0.066000000000     0          
O        O      0.797750000000     0.911650000000     0.016700000000     0          
O        O      0.798100000000     0.865750000000     0.418300000000     0          
T        Si     0.806850000000     0.514950000000     0.462800000000     0          
T        Si     0.840350000000     0.968800000000     0.407900000000     0          
T        Si     0.894650000000     0.924200000000     0.455950000000     0          
T        Si     0.847350000000     0.925150000000     0.031800000000     0          
T        Si     0.856400000000     0.869100000000     0.416300000000     0          
O        O      0.823650000000     0.750000000000     0.750000000000     0          
O        O      0.750000000000     0.727350000000     0.715400000000     0          
O        O      0.816000000000     0.754950000000     0.678150000000     0          
O        O      0.837550000000     0.706950000000     0.706650000000     0          
O        O      0.875000000000     0.771250000000     0.625000000000     0          
O        O      0.870750000000     0.798750000000     0.687450000000     0          
O        O      0.797900000000     0.800550000000     0.641550000000     0          
O        O      0.886900000000     0.825200000000     0.749450000000     0          
O        O      0.871350000000     0.853700000000     0.689300000000     0          
O        O      0.952300000000     0.825150000000     0.698500000000     0          
O        O      0.867800000000     0.842250000000     0.816000000000     0          
O        O      0.797750000000     0.838350000000     0.766700000000     0          
O        O      0.875000000000     0.877250000000     0.625000000000     0          
O        O      0.798100000000     0.884250000000     0.668300000000     0          
O        O      0.750000000000     0.876750000000     0.730100000000     0          
O        O      0.750000000000     0.877150000000     0.801850000000     0          
O        O      0.750000000000     0.838150000000     0.680350000000     0          
O        O      0.750000000000     0.840800000000     0.609700000000     0          
T        Si     0.806850000000     0.735050000000     0.712800000000     0          
T        Si     0.840350000000     0.781200000000     0.657900000000     0          
T        Si     0.894650000000     0.825800000000     0.705950000000     0          
T        Si     0.847350000000     0.824850000000     0.781800000000     0          
T        Si     0.856400000000     0.880900000000     0.666300000000     0          
T        Si     0.750000000000     0.857650000000     0.766200000000     0          
T        Si     0.750000000000     0.871300000000     0.686750000000     0          
T        Si     0.750000000000     0.819650000000     0.643700000000     0          
T        Si     0.500000000000     0.841150000000     0.684200000000     0          
O        O      0.926350000000     0.750000000000     0.500000000000     0          
O        O      0.500000000000     0.772650000000     0.965400000000     0          
O        O      0.934000000000     0.745050000000     0.928150000000     0          
O        O      0.912450000000     0.793050000000     0.956650000000     0          
O        O      0.875000000000     0.728750000000     0.875000000000     0          
O        O      0.879250000000     0.701250000000     0.937450000000     0          
O        O      0.952100000000     0.699450000000     0.891550000000     0          
O        O      0.863100000000     0.674800000000     0.999450000000     0          
O        O      0.878650000000     0.646300000000     0.939300000000     0          
O        O      0.797700000000     0.674850000000     0.948500000000     0          
O        O      0.882200000000     0.657750000000     0.566000000000     0          
O        O      0.952250000000     0.661650000000     0.516700000000     0          
O        O      0.875000000000     0.622750000000     0.875000000000     0          
O        O      0.951900000000     0.615750000000     0.918300000000     0          
O        O      0.500000000000     0.623250000000     0.980100000000     0          
O        O      0.500000000000     0.622850000000     0.551850000000     0          
O        O      0.500000000000     0.661850000000     0.930350000000     0          
O        O      0.500000000000     0.659200000000     0.859700000000     0          
T        Si     0.943150000000     0.764950000000     0.962800000000     0          
T        Si     0.909650000000     0.718800000000     0.907900000000     0          
T        Si     0.855350000000     0.674200000000     0.955950000000     0          
T        Si     0.902650000000     0.675150000000     0.531800000000     0          
T        Si     0.893600000000     0.619100000000     0.916300000000     0          
T        Si     0.500000000000     0.642350000000     0.516200000000     0          
T        Si     0.500000000000     0.628700000000     0.936750000000     0          
T        Si     0.500000000000     0.680350000000     0.893700000000     0          
T        Si     0.750000000000     0.658850000000     0.934200000000     0          
O        O      0.750000000000     0.772650000000     0.784600000000     0          
O        O      0.816000000000     0.745050000000     0.821850000000     0          
O        O      0.837550000000     0.793050000000     0.793350000000     0          
O        O      0.870750000000     0.701250000000     0.812550000000     0          
O        O      0.797900000000     0.699450000000     0.858450000000     0          
O        O      0.886900000000     0.674800000000     0.750550000000     0          
O        O      0.871350000000     0.646300000000     0.810700000000     0          
O        O      0.952300000000     0.674850000000     0.801500000000     0          
O        O      0.867800000000     0.657750000000     0.684000000000     0          
O        O      0.797750000000     0.661650000000     0.733300000000     0          
O        O      0.798100000000     0.615750000000     0.831700000000     0          
O        O      0.750000000000     0.623250000000     0.769900000000     0          
O        O      0.750000000000     0.622850000000     0.698150000000     0          
O        O      0.750000000000     0.661850000000     0.819650000000     0          
O        O      0.750000000000     0.659200000000     0.890300000000     0          
T        Si     0.806850000000     0.764950000000     0.787200000000     0          
T        Si     0.840350000000     0.718800000000     0.842100000000     0          
T        Si     0.894650000000     0.674200000000     0.794050000000     0          
T        Si     0.847350000000     0.675150000000     0.718200000000     0          
T        Si     0.856400000000     0.619100000000     0.833700000000     0          
T        Si     0.750000000000     0.642350000000     0.733800000000     0          
T        Si     0.750000000000     0.628700000000     0.813250000000     0          
T        Si     0.750000000000     0.680350000000     0.856300000000     0          
T        Si     0.500000000000     0.658850000000     0.815800000000     0          
O        O      0.500000000000     0.727350000000     0.534600000000     0          
O        O      0.934000000000     0.754950000000     0.571850000000     0          
O        O      0.912450000000     0.706950000000     0.543350000000     0          
O        O      0.879250000000     0.798750000000     0.562550000000     0          
O        O      0.952100000000     0.800550000000     0.608450000000     0          
O        O      0.863100000000     0.825200000000     0.500550000000     0          
O        O      0.878650000000     0.853700000000     0.560700000000     0          
O        O      0.797700000000     0.825150000000     0.551500000000     0          
O        O      0.882200000000     0.842250000000     0.934000000000     0          
O        O      0.952250000000     0.838350000000     0.983300000000     0          
O        O      0.951900000000     0.884250000000     0.581700000000     0          
O        O      0.500000000000     0.876750000000     0.519900000000     0          
O        O      0.500000000000     0.877150000000     0.948150000000     0          
O        O      0.500000000000     0.838150000000     0.569650000000     0          
O        O      0.500000000000     0.840800000000     0.640300000000     0          
T        Si     0.943150000000     0.735050000000     0.537200000000     0          
T        Si     0.909650000000     0.781200000000     0.592100000000     0          
T        Si     0.855350000000     0.825800000000     0.544050000000     0          
T        Si     0.902650000000     0.824850000000     0.968200000000     0          
T        Si     0.893600000000     0.880900000000     0.583700000000     0          
T        Si     0.500000000000     0.857650000000     0.983800000000     0          
T        Si     0.500000000000     0.871300000000     0.563250000000     0          
T        Si     0.500000000000     0.819650000000     0.606300000000     0          
T        Si     0.750000000000     0.841150000000     0.565800000000     0          
O        O      0.676350000000     0.750000000000     0.750000000000     0          
O        O      0.684000000000     0.745050000000     0.821850000000     0          
O        O      0.662450000000     0.793050000000     0.793350000000     0          
O        O      0.625000000000     0.728750000000     0.875000000000     0          
O        O      0.629250000000     0.701250000000     0.812550000000     0          
O        O      0.702100000000     0.699450000000     0.858450000000     0          
O        O      0.613100000000     0.674800000000     0.750550000000     0          
O        O      0.628650000000     0.646300000000     0.810700000000     0          
O        O      0.547700000000     0.674850000000     0.801500000000     0          
O        O      0.632200000000     0.657750000000     0.684000000000     0          
O        O      0.702250000000     0.661650000000     0.733300000000     0          
O        O      0.625000000000     0.622750000000     0.875000000000     0          
O        O      0.701900000000     0.615750000000     0.831700000000     0          
T        Si     0.693150000000     0.764950000000     0.787200000000     0          
T        Si     0.659650000000     0.718800000000     0.842100000000     0          
T        Si     0.605350000000     0.674200000000     0.794050000000     0          
T        Si     0.652650000000     0.675150000000     0.718200000000     0          
T        Si     0.643600000000     0.619100000000     0.833700000000     0          
O        O      0.573650000000     0.750000000000     0.500000000000     0          
O        O      0.566000000000     0.754950000000     0.571850000000     0          
O        O      0.587550000000     0.706950000000     0.543350000000     0          
O        O      0.625000000000     0.771250000000     0.625000000000     0          
O        O      0.620750000000     0.798750000000     0.562550000000     0          
O        O      0.547900000000     0.800550000000     0.608450000000     0          
O        O      0.636900000000     0.825200000000     0.500550000000     0          
O        O      0.621350000000     0.853700000000     0.560700000000     0          
O        O      0.702300000000     0.825150000000     0.551500000000     0          
O        O      0.617800000000     0.842250000000     0.934000000000     0          
O        O      0.547750000000     0.838350000000     0.983300000000     0          
O        O      0.625000000000     0.877250000000     0.625000000000     0          
O        O      0.548100000000     0.884250000000     0.581700000000     0          
T        Si     0.556850000000     0.735050000000     0.537200000000     0          
T        Si     0.590350000000     0.781200000000     0.592100000000     0          
T        Si     0.644650000000     0.825800000000     0.544050000000     0          
T        Si     0.597350000000     0.824850000000     0.968200000000     0          
T        Si     0.606400000000     0.880900000000     0.583700000000     0          
O        O      0.684000000000     0.754950000000     0.678150000000     0          
O        O      0.662450000000     0.706950000000     0.706650000000     0          
O        O      0.629250000000     0.798750000000     0.687450000000     0          
O        O      0.702100000000     0.800550000000     0.641550000000     0          
O        O      0.613100000000     0.825200000000     0.749450000000     0          
O        O      0.628650000000     0.853700000000     0.689300000000     0          
O        O      0.547700000000     0.825150000000     0.698500000000     0          
O        O      0.632200000000     0.842250000000     0.816000000000     0          
O        O      0.702250000000     0.838350000000     0.766700000000     0          
O        O      0.701900000000     0.884250000000     0.668300000000     0          
T        Si     0.693150000000     0.735050000000     0.712800000000     0          
T        Si     0.659650000000     0.781200000000     0.657900000000     0          
T        Si     0.605350000000     0.825800000000     0.705950000000     0          
T        Si     0.652650000000     0.824850000000     0.781800000000     0          
T        Si     0.643600000000     0.880900000000     0.666300000000     0          
O        O      0.566000000000     0.745050000000     0.928150000000     0          
O        O      0.587550000000     0.793050000000     0.956650000000     0          
O        O      0.620750000000     0.701250000000     0.937450000000     0          
O        O      0.547900000000     0.699450000000     0.891550000000     0          
O        O      0.636900000000     0.674800000000     0.999450000000     0          
O        O      0.621350000000     0.646300000000     0.939300000000     0          
O        O      0.702300000000     0.674850000000     0.948500000000     0          
O        O      0.617800000000     0.657750000000     0.566000000000     0          
O        O      0.547750000000     0.661650000000     0.516700000000     0          
O        O      0.548100000000     0.615750000000     0.918300000000     0          
T        Si     0.556850000000     0.764950000000     0.962800000000     0          
T        Si     0.590350000000     0.718800000000     0.907900000000     0          
T        Si     0.644650000000     0.674200000000     0.955950000000     0          
T        Si     0.597350000000     0.675150000000     0.531800000000     0          
T        Si     0.606400000000     0.619100000000     0.916300000000     0          
O        O      0.573650000000     0.500000000000     0.750000000000     0          
O        O      0.500000000000     0.977350000000     0.715400000000     0          
O        O      0.566000000000     0.504950000000     0.678150000000     0          
O        O      0.587550000000     0.956950000000     0.706650000000     0          
O        O      0.625000000000     0.521250000000     0.625000000000     0          
O        O      0.620750000000     0.548750000000     0.687450000000     0          
O        O      0.547900000000     0.550550000000     0.641550000000     0          
O        O      0.636900000000     0.575200000000     0.749450000000     0          
O        O      0.621350000000     0.603700000000     0.689300000000     0          
O        O      0.702300000000     0.575150000000     0.698500000000     0          
O        O      0.617800000000     0.592250000000     0.816000000000     0          
O        O      0.547750000000     0.588350000000     0.766700000000     0          
O        O      0.625000000000     0.627250000000     0.625000000000     0          
O        O      0.548100000000     0.634250000000     0.668300000000     0          
O        O      0.500000000000     0.626750000000     0.730100000000     0          
O        O      0.500000000000     0.627150000000     0.801850000000     0          
O        O      0.500000000000     0.588150000000     0.680350000000     0          
O        O      0.500000000000     0.590800000000     0.609700000000     0          
T        Si     0.556850000000     0.985050000000     0.712800000000     0          
T        Si     0.590350000000     0.531200000000     0.657900000000     0          
T        Si     0.644650000000     0.575800000000     0.705950000000     0          
T        Si     0.597350000000     0.574850000000     0.781800000000     0          
T        Si     0.606400000000     0.630900000000     0.666300000000     0          
T        Si     0.500000000000     0.607650000000     0.766200000000     0          
T        Si     0.500000000000     0.621300000000     0.686750000000     0          
T        Si     0.500000000000     0.569650000000     0.643700000000     0          
T        Si     0.750000000000     0.591150000000     0.684200000000     0          
O        O      0.676350000000     0.500000000000     0.500000000000     0          
O        O      0.750000000000     0.522650000000     0.965400000000     0          
O        O      0.684000000000     0.995050000000     0.928150000000     0          
O        O      0.662450000000     0.543050000000     0.956650000000     0          
O        O      0.625000000000     0.978750000000     0.875000000000     0          
O        O      0.629250000000     0.951250000000     0.937450000000     0          
O        O      0.702100000000     0.949450000000     0.891550000000     0          
O        O      0.613100000000     0.924800000000     0.999450000000     0          
O        O      0.628650000000     0.896300000000     0.939300000000     0          
O        O      0.547700000000     0.924850000000     0.948500000000     0          
O        O      0.632200000000     0.907750000000     0.566000000000     0          
O        O      0.702250000000     0.911650000000     0.516700000000     0          
O        O      0.625000000000     0.872750000000     0.875000000000     0          
O        O      0.701900000000     0.865750000000     0.918300000000     0          
O        O      0.750000000000     0.873250000000     0.980100000000     0          
O        O      0.750000000000     0.872850000000     0.551850000000     0          
O        O      0.750000000000     0.911850000000     0.930350000000     0          
O        O      0.750000000000     0.909200000000     0.859700000000     0          
T        Si     0.693150000000     0.514950000000     0.962800000000     0          
T        Si     0.659650000000     0.968800000000     0.907900000000     0          
T        Si     0.605350000000     0.924200000000     0.955950000000     0          
T        Si     0.652650000000     0.925150000000     0.531800000000     0          
T        Si     0.643600000000     0.869100000000     0.916300000000     0          
T        Si     0.750000000000     0.892350000000     0.516200000000     0          
T        Si     0.750000000000     0.878700000000     0.936750000000     0          
T        Si     0.750000000000     0.930350000000     0.893700000000     0          
T        Si     0.500000000000     0.908850000000     0.934200000000     0          
O        O      0.500000000000     0.522650000000     0.784600000000     0          
O        O      0.566000000000     0.995050000000     0.821850000000     0          
O        O      0.587550000000     0.543050000000     0.793350000000     0          
O        O      0.620750000000     0.951250000000     0.812550000000     0          
O        O      0.547900000000     0.949450000000     0.858450000000     0          
O        O      0.636900000000     0.924800000000     0.750550000000     0          
O        O      0.621350000000     0.896300000000     0.810700000000     0          
O        O      0.702300000000     0.924850000000     0.801500000000     0          
O        O      0.617800000000     0.907750000000     0.684000000000     0          
O        O      0.547750000000     0.911650000000     0.733300000000     0          
O        O      0.548100000000     0.865750000000     0.831700000000     0          
O        O      0.500000000000     0.873250000000     0.769900000000     0          
O        O      0.500000000000     0.872850000000     0.698150000000     0          
O        O      0.500000000000     0.911850000000     0.819650000000     0          
O        O      0.500000000000     0.909200000000     0.890300000000     0          
T        Si     0.556850000000     0.514950000000     0.787200000000     0          
T        Si     0.590350000000     0.968800000000     0.842100000000     0          
T        Si     0.644650000000     0.924200000000     0.794050000000     0          
T        Si     0.597350000000     0.925150000000     0.718200000000     0          
T        Si     0.606400000000     0.869100000000     0.833700000000     0          
T        Si     0.500000000000     0.892350000000     0.733800000000     0          
T        Si     0.500000000000     0.878700000000     0.813250000000     0          
T        Si     0.500000000000     0.930350000000     0.856300000000     0          
T        Si     0.750000000000     0.908850000000     0.815800000000     0          
O        O      0.750000000000     0.977350000000     0.534600000000     0          
O        O      0.684000000000     0.504950000000     0.571850000000     0          
O        O      0.662450000000     0.956950000000     0.543350000000     0          
O        O      0.629250000000     0.548750000000     0.562550000000     0          
O        O      0.702100000000     0.550550000000     0.608450000000     0          
O        O      0.613100000000     0.575200000000     0.500550000000     0          
O        O      0.628650000000     0.603700000000     0.560700000000     0          
O        O      0.547700000000     0.575150000000     0.551500000000     0          
O        O      0.632200000000     0.592250000000     0.934000000000     0          
O        O      0.702250000000     0.588350000000     0.983300000000     0          
O        O      0.701900000000     0.634250000000     0.581700000000     0          
O        O      0.750000000000     0.626750000000     0.519900000000     0          
O        O      0.750000000000     0.627150000000     0.948150000000     0          
O        O      0.750000000000     0.588150000000     0.569650000000     0          
O        O      0.750000000000     0.590800000000     0.640300000000     0          
T        Si     0.693150000000     0.985050000000     0.537200000000     0          
T        Si     0.659650000000     0.531200000000     0.592100000000     0          
T        Si     0.605350000000     0.575800000000     0.544050000000     0          
T        Si     0.652650000000     0.574850000000     0.968200000000     0          
T        Si     0.643600000000     0.630900000000     0.583700000000     0          
T        Si     0.750000000000     0.607650000000     0.983800000000     0          
T        Si     0.750000000000     0.621300000000     0.563250000000     0          
T        Si     0.750000000000     0.569650000000     0.606300000000     0          
T        Si     0.500000000000     0.591150000000     0.565800000000     0          
O        O      0.926350000000     0.500000000000     0.750000000000     0          
O        O      0.934000000000     0.995050000000     0.821850000000     0          
O        O      0.912450000000     0.543050000000     0.793350000000     0          
O        O      0.875000000000     0.978750000000     0.875000000000     0          
O        O      0.879250000000     0.951250000000     0.812550000000     0          
O        O      0.952100000000     0.949450000000     0.858450000000     0          
O        O      0.863100000000     0.924800000000     0.750550000000     0          
O        O      0.878650000000     0.896300000000     0.810700000000     0          
O        O      0.797700000000     0.924850000000     0.801500000000     0          
O        O      0.882200000000     0.907750000000     0.684000000000     0          
O        O      0.952250000000     0.911650000000     0.733300000000     0          
O        O      0.875000000000     0.872750000000     0.875000000000     0          
O        O      0.951900000000     0.865750000000     0.831700000000     0          
T        Si     0.943150000000     0.514950000000     0.787200000000     0          
T        Si     0.909650000000     0.968800000000     0.842100000000     0          
T        Si     0.855350000000     0.924200000000     0.794050000000     0          
T        Si     0.902650000000     0.925150000000     0.718200000000     0          
T        Si     0.893600000000     0.869100000000     0.833700000000     0          
O        O      0.823650000000     0.500000000000     0.500000000000     0          
O        O      0.816000000000     0.504950000000     0.571850000000     0          
O        O      0.837550000000     0.956950000000     0.543350000000     0          
O        O      0.875000000000     0.521250000000     0.625000000000     0          
O        O      0.870750000000     0.548750000000     0.562550000000     0          
O        O      0.797900000000     0.550550000000     0.608450000000     0          
O        O      0.886900000000     0.575200000000     0.500550000000     0          
O        O      0.871350000000     0.603700000000     0.560700000000     0          
O        O      0.952300000000     0.575150000000     0.551500000000     0          
O        O      0.867800000000     0.592250000000     0.934000000000     0          
O        O      0.797750000000     0.588350000000     0.983300000000     0          
O        O      0.875000000000     0.627250000000     0.625000000000     0          
O        O      0.798100000000     0.634250000000     0.581700000000     0          
T        Si     0.806850000000     0.985050000000     0.537200000000     0          
T        Si     0.840350000000     0.531200000000     0.592100000000     0          
T        Si     0.894650000000     0.575800000000     0.544050000000     0          
T        Si     0.847350000000     0.574850000000     0.968200000000     0          
T        Si     0.856400000000     0.630900000000     0.583700000000     0          
O        O      0.934000000000     0.504950000000     0.678150000000     0          
O        O      0.912450000000     0.956950000000     0.706650000000     0          
O        O      0.879250000000     0.548750000000     0.687450000000     0          
O        O      0.952100000000     0.550550000000     0.641550000000     0          
O        O      0.863100000000     0.575200000000     0.749450000000     0          
O        O      0.878650000000     0.603700000000     0.689300000000     0          
O        O      0.797700000000     0.575150000000     0.698500000000     0          
O        O      0.882200000000     0.592250000000     0.816000000000     0          
O        O      0.952250000000     0.588350000000     0.766700000000     0          
O        O      0.951900000000     0.634250000000     0.668300000000     0          
T        Si     0.943150000000     0.985050000000     0.712800000000     0          
T        Si     0.909650000000     0.531200000000     0.657900000000     0          
T        Si     0.855350000000     0.575800000000     0.705950000000     0          
T        Si     0.902650000000     0.574850000000     0.781800000000     0          
T        Si     0.893600000000     0.630900000000     0.666300000000     0          
O        O      0.816000000000     0.995050000000     0.928150000000     0          
O        O      0.837550000000     0.543050000000     0.956650000000     0          
O        O      0.870750000000     0.951250000000     0.937450000000     0          
O        O      0.797900000000     0.949450000000     0.891550000000     0          
O        O      0.886900000000     0.924800000000     0.999450000000     0          
O        O      0.871350000000     0.896300000000     0.939300000000     0          
O        O      0.952300000000     0.924850000000     0.948500000000     0          
O        O      0.867800000000     0.907750000000     0.566000000000     0          
O        O      0.797750000000     0.911650000000     0.516700000000     0          
O        O      0.798100000000     0.865750000000     0.918300000000     0          
T        Si     0.806850000000     0.514950000000     0.962800000000     0          
T        Si     0.840350000000     0.968800000000     0.907900000000     0          
T        Si     0.894650000000     0.924200000000     0.955950000000     0          
T        Si     0.847350000000     0.925150000000     0.531800000000     0          
T        Si     0.856400000000     0.869100000000     0.916300000000     0          


