data_zeolite

_audit_creation_method RASPA-1.0
_audit_creation_date 2021-6-6
_audit_author_name ''

_cell_length_a    8.992
_cell_length_b    19.356
_cell_length_c    10.392
_cell_angle_alpha 90
_cell_angle_beta  90
_cell_angle_gamma 90
_cell_volume      32556.9

_symmetry_cell_setting          orthorhombic
_symmetry_space_group_name_Hall 'P 1'
_symmetry_space_group_name_H-M  'P 1'
_symmetry_Int_Tables_number     1

_symmetry_equiv_pos_as_xyz 'x,y,z'

loop_
_atom_site_label
_atom_site_type_symbol
_atom_site_fract_x
_atom_site_fract_y
_atom_site_fract_z
_atom_site_charge
T        Si     0.058733333333     0.227650000000     0.128000000000     0          
T        Si     0.107933333333     0.146750000000     0.038466666667     0          
T        Si     0.107933333333     0.272350000000     0.294666666667     0          
T        Si     0.058733333333     0.353250000000     0.205133333333     0          
T        Si     0.058733333333     0.272350000000     0.205333333333     0          
T        Si     0.107933333333     0.353250000000     0.294866666667     0          
T        Si     0.107933333333     0.227650000000     0.038666666667     0          
T        Si     0.058733333333     0.146750000000     0.128200000000     0          
T        Si     0.274600000000     0.272350000000     0.205333333333     0          
T        Si     0.225400000000     0.353250000000     0.294866666667     0          
T        Si     0.225400000000     0.227650000000     0.038666666667     0          
T        Si     0.274600000000     0.146750000000     0.128200000000     0          
T        Si     0.274600000000     0.227650000000     0.128000000000     0          
T        Si     0.225400000000     0.146750000000     0.038466666667     0          
T        Si     0.225400000000     0.272350000000     0.294666666667     0          
T        Si     0.274600000000     0.353250000000     0.205133333333     0          
T        Si     0.225400000000     0.477650000000     0.128000000000     0          
T        Si     0.274600000000     0.396750000000     0.038466666667     0          
T        Si     0.274600000000     0.022350000000     0.294666666667     0          
T        Si     0.225400000000     0.103250000000     0.205133333333     0          
T        Si     0.225400000000     0.022350000000     0.205333333333     0          
T        Si     0.274600000000     0.103250000000     0.294866666667     0          
T        Si     0.274600000000     0.477650000000     0.038666666667     0          
T        Si     0.225400000000     0.396750000000     0.128200000000     0          
T        Si     0.107933333333     0.022350000000     0.205333333333     0          
T        Si     0.058733333333     0.103250000000     0.294866666667     0          
T        Si     0.058733333333     0.477650000000     0.038666666667     0          
T        Si     0.107933333333     0.396750000000     0.128200000000     0          
T        Si     0.107933333333     0.477650000000     0.128000000000     0          
T        Si     0.058733333333     0.396750000000     0.038466666667     0          
T        Si     0.058733333333     0.022350000000     0.294666666667     0          
T        Si     0.107933333333     0.103250000000     0.205133333333     0          
T        Si     0.058733333333     0.227650000000     0.461333333333     0          
T        Si     0.107933333333     0.146750000000     0.371800000000     0          
T        Si     0.107933333333     0.272350000000     0.628000000000     0          
T        Si     0.058733333333     0.353250000000     0.538466666667     0          
T        Si     0.058733333333     0.272350000000     0.538666666667     0          
T        Si     0.107933333333     0.353250000000     0.628200000000     0          
T        Si     0.107933333333     0.227650000000     0.372000000000     0          
T        Si     0.058733333333     0.146750000000     0.461533333333     0          
T        Si     0.274600000000     0.272350000000     0.538666666667     0          
T        Si     0.225400000000     0.353250000000     0.628200000000     0          
T        Si     0.225400000000     0.227650000000     0.372000000000     0          
T        Si     0.274600000000     0.146750000000     0.461533333333     0          
T        Si     0.274600000000     0.227650000000     0.461333333333     0          
T        Si     0.225400000000     0.146750000000     0.371800000000     0          
T        Si     0.225400000000     0.272350000000     0.628000000000     0          
T        Si     0.274600000000     0.353250000000     0.538466666667     0          
T        Si     0.225400000000     0.477650000000     0.461333333333     0          
T        Si     0.274600000000     0.396750000000     0.371800000000     0          
T        Si     0.274600000000     0.022350000000     0.628000000000     0          
T        Si     0.225400000000     0.103250000000     0.538466666667     0          
T        Si     0.225400000000     0.022350000000     0.538666666667     0          
T        Si     0.274600000000     0.103250000000     0.628200000000     0          
T        Si     0.274600000000     0.477650000000     0.372000000000     0          
T        Si     0.225400000000     0.396750000000     0.461533333333     0          
T        Si     0.107933333333     0.022350000000     0.538666666667     0          
T        Si     0.058733333333     0.103250000000     0.628200000000     0          
T        Si     0.058733333333     0.477650000000     0.372000000000     0          
T        Si     0.107933333333     0.396750000000     0.461533333333     0          
T        Si     0.107933333333     0.477650000000     0.461333333333     0          
T        Si     0.058733333333     0.396750000000     0.371800000000     0          
T        Si     0.058733333333     0.022350000000     0.628000000000     0          
T        Si     0.107933333333     0.103250000000     0.538466666667     0          
T        Si     0.058733333333     0.227650000000     0.794666666667     0          
T        Si     0.107933333333     0.146750000000     0.705133333333     0          
T        Si     0.107933333333     0.272350000000     0.961333333333     0          
T        Si     0.058733333333     0.353250000000     0.871800000000     0          
T        Si     0.058733333333     0.272350000000     0.872000000000     0          
T        Si     0.107933333333     0.353250000000     0.961533333333     0          
T        Si     0.107933333333     0.227650000000     0.705333333333     0          
T        Si     0.058733333333     0.146750000000     0.794866666667     0          
T        Si     0.274600000000     0.272350000000     0.872000000000     0          
T        Si     0.225400000000     0.353250000000     0.961533333333     0          
T        Si     0.225400000000     0.227650000000     0.705333333333     0          
T        Si     0.274600000000     0.146750000000     0.794866666667     0          
T        Si     0.274600000000     0.227650000000     0.794666666667     0          
T        Si     0.225400000000     0.146750000000     0.705133333333     0          
T        Si     0.225400000000     0.272350000000     0.961333333333     0          
T        Si     0.274600000000     0.353250000000     0.871800000000     0          
T        Si     0.225400000000     0.477650000000     0.794666666667     0          
T        Si     0.274600000000     0.396750000000     0.705133333333     0          
T        Si     0.274600000000     0.022350000000     0.961333333333     0          
T        Si     0.225400000000     0.103250000000     0.871800000000     0          
T        Si     0.225400000000     0.022350000000     0.872000000000     0          
T        Si     0.274600000000     0.103250000000     0.961533333333     0          
T        Si     0.274600000000     0.477650000000     0.705333333333     0          
T        Si     0.225400000000     0.396750000000     0.794866666667     0          
T        Si     0.107933333333     0.022350000000     0.872000000000     0          
T        Si     0.058733333333     0.103250000000     0.961533333333     0          
T        Si     0.058733333333     0.477650000000     0.705333333333     0          
T        Si     0.107933333333     0.396750000000     0.794866666667     0          
T        Si     0.107933333333     0.477650000000     0.794666666667     0          
T        Si     0.058733333333     0.396750000000     0.705133333333     0          
T        Si     0.058733333333     0.022350000000     0.961333333333     0          
T        Si     0.107933333333     0.103250000000     0.871800000000     0          
T        Si     0.058733333333     0.727650000000     0.128000000000     0          
T        Si     0.107933333333     0.646750000000     0.038466666667     0          
T        Si     0.107933333333     0.772350000000     0.294666666667     0          
T        Si     0.058733333333     0.853250000000     0.205133333333     0          
T        Si     0.058733333333     0.772350000000     0.205333333333     0          
T        Si     0.107933333333     0.853250000000     0.294866666667     0          
T        Si     0.107933333333     0.727650000000     0.038666666667     0          
T        Si     0.058733333333     0.646750000000     0.128200000000     0          
T        Si     0.274600000000     0.772350000000     0.205333333333     0          
T        Si     0.225400000000     0.853250000000     0.294866666667     0          
T        Si     0.225400000000     0.727650000000     0.038666666667     0          
T        Si     0.274600000000     0.646750000000     0.128200000000     0          
T        Si     0.274600000000     0.727650000000     0.128000000000     0          
T        Si     0.225400000000     0.646750000000     0.038466666667     0          
T        Si     0.225400000000     0.772350000000     0.294666666667     0          
T        Si     0.274600000000     0.853250000000     0.205133333333     0          
T        Si     0.225400000000     0.977650000000     0.128000000000     0          
T        Si     0.274600000000     0.896750000000     0.038466666667     0          
T        Si     0.274600000000     0.522350000000     0.294666666667     0          
T        Si     0.225400000000     0.603250000000     0.205133333333     0          
T        Si     0.225400000000     0.522350000000     0.205333333333     0          
T        Si     0.274600000000     0.603250000000     0.294866666667     0          
T        Si     0.274600000000     0.977650000000     0.038666666667     0          
T        Si     0.225400000000     0.896750000000     0.128200000000     0          
T        Si     0.107933333333     0.522350000000     0.205333333333     0          
T        Si     0.058733333333     0.603250000000     0.294866666667     0          
T        Si     0.058733333333     0.977650000000     0.038666666667     0          
T        Si     0.107933333333     0.896750000000     0.128200000000     0          
T        Si     0.107933333333     0.977650000000     0.128000000000     0          
T        Si     0.058733333333     0.896750000000     0.038466666667     0          
T        Si     0.058733333333     0.522350000000     0.294666666667     0          
T        Si     0.107933333333     0.603250000000     0.205133333333     0          
T        Si     0.058733333333     0.727650000000     0.461333333333     0          
T        Si     0.107933333333     0.646750000000     0.371800000000     0          
T        Si     0.107933333333     0.772350000000     0.628000000000     0          
T        Si     0.058733333333     0.853250000000     0.538466666667     0          
T        Si     0.058733333333     0.772350000000     0.538666666667     0          
T        Si     0.107933333333     0.853250000000     0.628200000000     0          
T        Si     0.107933333333     0.727650000000     0.372000000000     0          
T        Si     0.058733333333     0.646750000000     0.461533333333     0          
T        Si     0.274600000000     0.772350000000     0.538666666667     0          
T        Si     0.225400000000     0.853250000000     0.628200000000     0          
T        Si     0.225400000000     0.727650000000     0.372000000000     0          
T        Si     0.274600000000     0.646750000000     0.461533333333     0          
T        Si     0.274600000000     0.727650000000     0.461333333333     0          
T        Si     0.225400000000     0.646750000000     0.371800000000     0          
T        Si     0.225400000000     0.772350000000     0.628000000000     0          
T        Si     0.274600000000     0.853250000000     0.538466666667     0          
T        Si     0.225400000000     0.977650000000     0.461333333333     0          
T        Si     0.274600000000     0.896750000000     0.371800000000     0          
T        Si     0.274600000000     0.522350000000     0.628000000000     0          
T        Si     0.225400000000     0.603250000000     0.538466666667     0          
T        Si     0.225400000000     0.522350000000     0.538666666667     0          
T        Si     0.274600000000     0.603250000000     0.628200000000     0          
T        Si     0.274600000000     0.977650000000     0.372000000000     0          
T        Si     0.225400000000     0.896750000000     0.461533333333     0          
T        Si     0.107933333333     0.522350000000     0.538666666667     0          
T        Si     0.058733333333     0.603250000000     0.628200000000     0          
T        Si     0.058733333333     0.977650000000     0.372000000000     0          
T        Si     0.107933333333     0.896750000000     0.461533333333     0          
T        Si     0.107933333333     0.977650000000     0.461333333333     0          
T        Si     0.058733333333     0.896750000000     0.371800000000     0          
T        Si     0.058733333333     0.522350000000     0.628000000000     0          
T        Si     0.107933333333     0.603250000000     0.538466666667     0          
T        Si     0.058733333333     0.727650000000     0.794666666667     0          
T        Si     0.107933333333     0.646750000000     0.705133333333     0          
T        Si     0.107933333333     0.772350000000     0.961333333333     0          
T        Si     0.058733333333     0.853250000000     0.871800000000     0          
T        Si     0.058733333333     0.772350000000     0.872000000000     0          
T        Si     0.107933333333     0.853250000000     0.961533333333     0          
T        Si     0.107933333333     0.727650000000     0.705333333333     0          
T        Si     0.058733333333     0.646750000000     0.794866666667     0          
T        Si     0.274600000000     0.772350000000     0.872000000000     0          
T        Si     0.225400000000     0.853250000000     0.961533333333     0          
T        Si     0.225400000000     0.727650000000     0.705333333333     0          
T        Si     0.274600000000     0.646750000000     0.794866666667     0          
T        Si     0.274600000000     0.727650000000     0.794666666667     0          
T        Si     0.225400000000     0.646750000000     0.705133333333     0          
T        Si     0.225400000000     0.772350000000     0.961333333333     0          
T        Si     0.274600000000     0.853250000000     0.871800000000     0          
T        Si     0.225400000000     0.977650000000     0.794666666667     0          
T        Si     0.274600000000     0.896750000000     0.705133333333     0          
T        Si     0.274600000000     0.522350000000     0.961333333333     0          
T        Si     0.225400000000     0.603250000000     0.871800000000     0          
T        Si     0.225400000000     0.522350000000     0.872000000000     0          
T        Si     0.274600000000     0.603250000000     0.961533333333     0          
T        Si     0.274600000000     0.977650000000     0.705333333333     0          
T        Si     0.225400000000     0.896750000000     0.794866666667     0          
T        Si     0.107933333333     0.522350000000     0.872000000000     0          
T        Si     0.058733333333     0.603250000000     0.961533333333     0          
T        Si     0.058733333333     0.977650000000     0.705333333333     0          
T        Si     0.107933333333     0.896750000000     0.794866666667     0          
T        Si     0.107933333333     0.977650000000     0.794666666667     0          
T        Si     0.058733333333     0.896750000000     0.705133333333     0          
T        Si     0.058733333333     0.522350000000     0.961333333333     0          
T        Si     0.107933333333     0.603250000000     0.871800000000     0          
T        Si     0.392066666667     0.227650000000     0.128000000000     0          
T        Si     0.441266666667     0.146750000000     0.038466666667     0          
T        Si     0.441266666667     0.272350000000     0.294666666667     0          
T        Si     0.392066666667     0.353250000000     0.205133333333     0          
T        Si     0.392066666667     0.272350000000     0.205333333333     0          
T        Si     0.441266666667     0.353250000000     0.294866666667     0          
T        Si     0.441266666667     0.227650000000     0.038666666667     0          
T        Si     0.392066666667     0.146750000000     0.128200000000     0          
T        Si     0.607933333333     0.272350000000     0.205333333333     0          
T        Si     0.558733333333     0.353250000000     0.294866666667     0          
T        Si     0.558733333333     0.227650000000     0.038666666667     0          
T        Si     0.607933333333     0.146750000000     0.128200000000     0          
T        Si     0.607933333333     0.227650000000     0.128000000000     0          
T        Si     0.558733333333     0.146750000000     0.038466666667     0          
T        Si     0.558733333333     0.272350000000     0.294666666667     0          
T        Si     0.607933333333     0.353250000000     0.205133333333     0          
T        Si     0.558733333333     0.477650000000     0.128000000000     0          
T        Si     0.607933333333     0.396750000000     0.038466666667     0          
T        Si     0.607933333333     0.022350000000     0.294666666667     0          
T        Si     0.558733333333     0.103250000000     0.205133333333     0          
T        Si     0.558733333333     0.022350000000     0.205333333333     0          
T        Si     0.607933333333     0.103250000000     0.294866666667     0          
T        Si     0.607933333333     0.477650000000     0.038666666667     0          
T        Si     0.558733333333     0.396750000000     0.128200000000     0          
T        Si     0.441266666667     0.022350000000     0.205333333333     0          
T        Si     0.392066666667     0.103250000000     0.294866666667     0          
T        Si     0.392066666667     0.477650000000     0.038666666667     0          
T        Si     0.441266666667     0.396750000000     0.128200000000     0          
T        Si     0.441266666667     0.477650000000     0.128000000000     0          
T        Si     0.392066666667     0.396750000000     0.038466666667     0          
T        Si     0.392066666667     0.022350000000     0.294666666667     0          
T        Si     0.441266666667     0.103250000000     0.205133333333     0          
T        Si     0.392066666667     0.227650000000     0.461333333333     0          
T        Si     0.441266666667     0.146750000000     0.371800000000     0          
T        Si     0.441266666667     0.272350000000     0.628000000000     0          
T        Si     0.392066666667     0.353250000000     0.538466666667     0          
T        Si     0.392066666667     0.272350000000     0.538666666667     0          
T        Si     0.441266666667     0.353250000000     0.628200000000     0          
T        Si     0.441266666667     0.227650000000     0.372000000000     0          
T        Si     0.392066666667     0.146750000000     0.461533333333     0          
T        Si     0.607933333333     0.272350000000     0.538666666667     0          
T        Si     0.558733333333     0.353250000000     0.628200000000     0          
T        Si     0.558733333333     0.227650000000     0.372000000000     0          
T        Si     0.607933333333     0.146750000000     0.461533333333     0          
T        Si     0.607933333333     0.227650000000     0.461333333333     0          
T        Si     0.558733333333     0.146750000000     0.371800000000     0          
T        Si     0.558733333333     0.272350000000     0.628000000000     0          
T        Si     0.607933333333     0.353250000000     0.538466666667     0          
T        Si     0.558733333333     0.477650000000     0.461333333333     0          
T        Si     0.607933333333     0.396750000000     0.371800000000     0          
T        Si     0.607933333333     0.022350000000     0.628000000000     0          
T        Si     0.558733333333     0.103250000000     0.538466666667     0          
T        Si     0.558733333333     0.022350000000     0.538666666667     0          
T        Si     0.607933333333     0.103250000000     0.628200000000     0          
T        Si     0.607933333333     0.477650000000     0.372000000000     0          
T        Si     0.558733333333     0.396750000000     0.461533333333     0          
T        Si     0.441266666667     0.022350000000     0.538666666667     0          
T        Si     0.392066666667     0.103250000000     0.628200000000     0          
T        Si     0.392066666667     0.477650000000     0.372000000000     0          
T        Si     0.441266666667     0.396750000000     0.461533333333     0          
T        Si     0.441266666667     0.477650000000     0.461333333333     0          
T        Si     0.392066666667     0.396750000000     0.371800000000     0          
T        Si     0.392066666667     0.022350000000     0.628000000000     0          
T        Si     0.441266666667     0.103250000000     0.538466666667     0          
T        Si     0.392066666667     0.227650000000     0.794666666667     0          
T        Si     0.441266666667     0.146750000000     0.705133333333     0          
T        Si     0.441266666667     0.272350000000     0.961333333333     0          
T        Si     0.392066666667     0.353250000000     0.871800000000     0          
T        Si     0.392066666667     0.272350000000     0.872000000000     0          
T        Si     0.441266666667     0.353250000000     0.961533333333     0          
T        Si     0.441266666667     0.227650000000     0.705333333333     0          
T        Si     0.392066666667     0.146750000000     0.794866666667     0          
T        Si     0.607933333333     0.272350000000     0.872000000000     0          
T        Si     0.558733333333     0.353250000000     0.961533333333     0          
T        Si     0.558733333333     0.227650000000     0.705333333333     0          
T        Si     0.607933333333     0.146750000000     0.794866666667     0          
T        Si     0.607933333333     0.227650000000     0.794666666667     0          
T        Si     0.558733333333     0.146750000000     0.705133333333     0          
T        Si     0.558733333333     0.272350000000     0.961333333333     0          
T        Si     0.607933333333     0.353250000000     0.871800000000     0          
T        Si     0.558733333333     0.477650000000     0.794666666667     0          
T        Si     0.607933333333     0.396750000000     0.705133333333     0          
T        Si     0.607933333333     0.022350000000     0.961333333333     0          
T        Si     0.558733333333     0.103250000000     0.871800000000     0          
T        Si     0.558733333333     0.022350000000     0.872000000000     0          
T        Si     0.607933333333     0.103250000000     0.961533333333     0          
T        Si     0.607933333333     0.477650000000     0.705333333333     0          
T        Si     0.558733333333     0.396750000000     0.794866666667     0          
T        Si     0.441266666667     0.022350000000     0.872000000000     0          
T        Si     0.392066666667     0.103250000000     0.961533333333     0          
T        Si     0.392066666667     0.477650000000     0.705333333333     0          
T        Si     0.441266666667     0.396750000000     0.794866666667     0          
T        Si     0.441266666667     0.477650000000     0.794666666667     0          
T        Si     0.392066666667     0.396750000000     0.705133333333     0          
T        Si     0.392066666667     0.022350000000     0.961333333333     0          
T        Si     0.441266666667     0.103250000000     0.871800000000     0          
T        Si     0.392066666667     0.727650000000     0.128000000000     0          
T        Si     0.441266666667     0.646750000000     0.038466666667     0          
T        Si     0.441266666667     0.772350000000     0.294666666667     0          
T        Si     0.392066666667     0.853250000000     0.205133333333     0          
T        Si     0.392066666667     0.772350000000     0.205333333333     0          
T        Si     0.441266666667     0.853250000000     0.294866666667     0          
T        Si     0.441266666667     0.727650000000     0.038666666667     0          
T        Si     0.392066666667     0.646750000000     0.128200000000     0          
T        Si     0.607933333333     0.772350000000     0.205333333333     0          
T        Si     0.558733333333     0.853250000000     0.294866666667     0          
T        Si     0.558733333333     0.727650000000     0.038666666667     0          
T        Si     0.607933333333     0.646750000000     0.128200000000     0          
T        Si     0.607933333333     0.727650000000     0.128000000000     0          
T        Si     0.558733333333     0.646750000000     0.038466666667     0          
T        Si     0.558733333333     0.772350000000     0.294666666667     0          
T        Si     0.607933333333     0.853250000000     0.205133333333     0          
T        Si     0.558733333333     0.977650000000     0.128000000000     0          
T        Si     0.607933333333     0.896750000000     0.038466666667     0          
T        Si     0.607933333333     0.522350000000     0.294666666667     0          
T        Si     0.558733333333     0.603250000000     0.205133333333     0          
T        Si     0.558733333333     0.522350000000     0.205333333333     0          
T        Si     0.607933333333     0.603250000000     0.294866666667     0          
T        Si     0.607933333333     0.977650000000     0.038666666667     0          
T        Si     0.558733333333     0.896750000000     0.128200000000     0          
T        Si     0.441266666667     0.522350000000     0.205333333333     0          
T        Si     0.392066666667     0.603250000000     0.294866666667     0          
T        Si     0.392066666667     0.977650000000     0.038666666667     0          
T        Si     0.441266666667     0.896750000000     0.128200000000     0          
T        Si     0.441266666667     0.977650000000     0.128000000000     0          
T        Si     0.392066666667     0.896750000000     0.038466666667     0          
T        Si     0.392066666667     0.522350000000     0.294666666667     0          
T        Si     0.441266666667     0.603250000000     0.205133333333     0          
T        Si     0.392066666667     0.727650000000     0.461333333333     0          
T        Si     0.441266666667     0.646750000000     0.371800000000     0          
T        Si     0.441266666667     0.772350000000     0.628000000000     0          
T        Si     0.392066666667     0.853250000000     0.538466666667     0          
T        Si     0.392066666667     0.772350000000     0.538666666667     0          
T        Si     0.441266666667     0.853250000000     0.628200000000     0          
T        Si     0.441266666667     0.727650000000     0.372000000000     0          
T        Si     0.392066666667     0.646750000000     0.461533333333     0          
T        Si     0.607933333333     0.772350000000     0.538666666667     0          
T        Si     0.558733333333     0.853250000000     0.628200000000     0          
T        Si     0.558733333333     0.727650000000     0.372000000000     0          
T        Si     0.607933333333     0.646750000000     0.461533333333     0          
T        Si     0.607933333333     0.727650000000     0.461333333333     0          
T        Si     0.558733333333     0.646750000000     0.371800000000     0          
T        Si     0.558733333333     0.772350000000     0.628000000000     0          
T        Si     0.607933333333     0.853250000000     0.538466666667     0          
T        Si     0.558733333333     0.977650000000     0.461333333333     0          
T        Si     0.607933333333     0.896750000000     0.371800000000     0          
T        Si     0.607933333333     0.522350000000     0.628000000000     0          
T        Si     0.558733333333     0.603250000000     0.538466666667     0          
T        Si     0.558733333333     0.522350000000     0.538666666667     0          
T        Si     0.607933333333     0.603250000000     0.628200000000     0          
T        Si     0.607933333333     0.977650000000     0.372000000000     0          
T        Si     0.558733333333     0.896750000000     0.461533333333     0          
T        Si     0.441266666667     0.522350000000     0.538666666667     0          
T        Si     0.392066666667     0.603250000000     0.628200000000     0          
T        Si     0.392066666667     0.977650000000     0.372000000000     0          
T        Si     0.441266666667     0.896750000000     0.461533333333     0          
T        Si     0.441266666667     0.977650000000     0.461333333333     0          
T        Si     0.392066666667     0.896750000000     0.371800000000     0          
T        Si     0.392066666667     0.522350000000     0.628000000000     0          
T        Si     0.441266666667     0.603250000000     0.538466666667     0          
T        Si     0.392066666667     0.727650000000     0.794666666667     0          
T        Si     0.441266666667     0.646750000000     0.705133333333     0          
T        Si     0.441266666667     0.772350000000     0.961333333333     0          
T        Si     0.392066666667     0.853250000000     0.871800000000     0          
T        Si     0.392066666667     0.772350000000     0.872000000000     0          
T        Si     0.441266666667     0.853250000000     0.961533333333     0          
T        Si     0.441266666667     0.727650000000     0.705333333333     0          
T        Si     0.392066666667     0.646750000000     0.794866666667     0          
T        Si     0.607933333333     0.772350000000     0.872000000000     0          
T        Si     0.558733333333     0.853250000000     0.961533333333     0          
T        Si     0.558733333333     0.727650000000     0.705333333333     0          
T        Si     0.607933333333     0.646750000000     0.794866666667     0          
T        Si     0.607933333333     0.727650000000     0.794666666667     0          
T        Si     0.558733333333     0.646750000000     0.705133333333     0          
T        Si     0.558733333333     0.772350000000     0.961333333333     0          
T        Si     0.607933333333     0.853250000000     0.871800000000     0          
T        Si     0.558733333333     0.977650000000     0.794666666667     0          
T        Si     0.607933333333     0.896750000000     0.705133333333     0          
T        Si     0.607933333333     0.522350000000     0.961333333333     0          
T        Si     0.558733333333     0.603250000000     0.871800000000     0          
T        Si     0.558733333333     0.522350000000     0.872000000000     0          
T        Si     0.607933333333     0.603250000000     0.961533333333     0          
T        Si     0.607933333333     0.977650000000     0.705333333333     0          
T        Si     0.558733333333     0.896750000000     0.794866666667     0          
T        Si     0.441266666667     0.522350000000     0.872000000000     0          
T        Si     0.392066666667     0.603250000000     0.961533333333     0          
T        Si     0.392066666667     0.977650000000     0.705333333333     0          
T        Si     0.441266666667     0.896750000000     0.794866666667     0          
T        Si     0.441266666667     0.977650000000     0.794666666667     0          
T        Si     0.392066666667     0.896750000000     0.705133333333     0          
T        Si     0.392066666667     0.522350000000     0.961333333333     0          
T        Si     0.441266666667     0.603250000000     0.871800000000     0          
T        Si     0.725400000000     0.227650000000     0.128000000000     0          
T        Si     0.774600000000     0.146750000000     0.038466666667     0          
T        Si     0.774600000000     0.272350000000     0.294666666667     0          
T        Si     0.725400000000     0.353250000000     0.205133333333     0          
T        Si     0.725400000000     0.272350000000     0.205333333333     0          
T        Si     0.774600000000     0.353250000000     0.294866666667     0          
T        Si     0.774600000000     0.227650000000     0.038666666667     0          
T        Si     0.725400000000     0.146750000000     0.128200000000     0          
T        Si     0.941266666667     0.272350000000     0.205333333333     0          
T        Si     0.892066666667     0.353250000000     0.294866666667     0          
T        Si     0.892066666667     0.227650000000     0.038666666667     0          
T        Si     0.941266666667     0.146750000000     0.128200000000     0          
T        Si     0.941266666667     0.227650000000     0.128000000000     0          
T        Si     0.892066666667     0.146750000000     0.038466666667     0          
T        Si     0.892066666667     0.272350000000     0.294666666667     0          
T        Si     0.941266666667     0.353250000000     0.205133333333     0          
T        Si     0.892066666667     0.477650000000     0.128000000000     0          
T        Si     0.941266666667     0.396750000000     0.038466666667     0          
T        Si     0.941266666667     0.022350000000     0.294666666667     0          
T        Si     0.892066666667     0.103250000000     0.205133333333     0          
T        Si     0.892066666667     0.022350000000     0.205333333333     0          
T        Si     0.941266666667     0.103250000000     0.294866666667     0          
T        Si     0.941266666667     0.477650000000     0.038666666667     0          
T        Si     0.892066666667     0.396750000000     0.128200000000     0          
T        Si     0.774600000000     0.022350000000     0.205333333333     0          
T        Si     0.725400000000     0.103250000000     0.294866666667     0          
T        Si     0.725400000000     0.477650000000     0.038666666667     0          
T        Si     0.774600000000     0.396750000000     0.128200000000     0          
T        Si     0.774600000000     0.477650000000     0.128000000000     0          
T        Si     0.725400000000     0.396750000000     0.038466666667     0          
T        Si     0.725400000000     0.022350000000     0.294666666667     0          
T        Si     0.774600000000     0.103250000000     0.205133333333     0          
T        Si     0.725400000000     0.227650000000     0.461333333333     0          
T        Si     0.774600000000     0.146750000000     0.371800000000     0          
T        Si     0.774600000000     0.272350000000     0.628000000000     0          
T        Si     0.725400000000     0.353250000000     0.538466666667     0          
T        Si     0.725400000000     0.272350000000     0.538666666667     0          
T        Si     0.774600000000     0.353250000000     0.628200000000     0          
T        Si     0.774600000000     0.227650000000     0.372000000000     0          
T        Si     0.725400000000     0.146750000000     0.461533333333     0          
T        Si     0.941266666667     0.272350000000     0.538666666667     0          
T        Si     0.892066666667     0.353250000000     0.628200000000     0          
T        Si     0.892066666667     0.227650000000     0.372000000000     0          
T        Si     0.941266666667     0.146750000000     0.461533333333     0          
T        Si     0.941266666667     0.227650000000     0.461333333333     0          
T        Si     0.892066666667     0.146750000000     0.371800000000     0          
T        Si     0.892066666667     0.272350000000     0.628000000000     0          
T        Si     0.941266666667     0.353250000000     0.538466666667     0          
T        Si     0.892066666667     0.477650000000     0.461333333333     0          
T        Si     0.941266666667     0.396750000000     0.371800000000     0          
T        Si     0.941266666667     0.022350000000     0.628000000000     0          
T        Si     0.892066666667     0.103250000000     0.538466666667     0          
T        Si     0.892066666667     0.022350000000     0.538666666667     0          
T        Si     0.941266666667     0.103250000000     0.628200000000     0          
T        Si     0.941266666667     0.477650000000     0.372000000000     0          
T        Si     0.892066666667     0.396750000000     0.461533333333     0          
T        Si     0.774600000000     0.022350000000     0.538666666667     0          
T        Si     0.725400000000     0.103250000000     0.628200000000     0          
T        Si     0.725400000000     0.477650000000     0.372000000000     0          
T        Si     0.774600000000     0.396750000000     0.461533333333     0          
T        Si     0.774600000000     0.477650000000     0.461333333333     0          
T        Si     0.725400000000     0.396750000000     0.371800000000     0          
T        Si     0.725400000000     0.022350000000     0.628000000000     0          
T        Si     0.774600000000     0.103250000000     0.538466666667     0          
T        Si     0.725400000000     0.227650000000     0.794666666667     0          
T        Si     0.774600000000     0.146750000000     0.705133333333     0          
T        Si     0.774600000000     0.272350000000     0.961333333333     0          
T        Si     0.725400000000     0.353250000000     0.871800000000     0          
T        Si     0.725400000000     0.272350000000     0.872000000000     0          
T        Si     0.774600000000     0.353250000000     0.961533333333     0          
T        Si     0.774600000000     0.227650000000     0.705333333333     0          
T        Si     0.725400000000     0.146750000000     0.794866666667     0          
T        Si     0.941266666667     0.272350000000     0.872000000000     0          
T        Si     0.892066666667     0.353250000000     0.961533333333     0          
T        Si     0.892066666667     0.227650000000     0.705333333333     0          
T        Si     0.941266666667     0.146750000000     0.794866666667     0          
T        Si     0.941266666667     0.227650000000     0.794666666667     0          
T        Si     0.892066666667     0.146750000000     0.705133333333     0          
T        Si     0.892066666667     0.272350000000     0.961333333333     0          
T        Si     0.941266666667     0.353250000000     0.871800000000     0          
T        Si     0.892066666667     0.477650000000     0.794666666667     0          
T        Si     0.941266666667     0.396750000000     0.705133333333     0          
T        Si     0.941266666667     0.022350000000     0.961333333333     0          
T        Si     0.892066666667     0.103250000000     0.871800000000     0          
T        Si     0.892066666667     0.022350000000     0.872000000000     0          
T        Si     0.941266666667     0.103250000000     0.961533333333     0          
T        Si     0.941266666667     0.477650000000     0.705333333333     0          
T        Si     0.892066666667     0.396750000000     0.794866666667     0          
T        Si     0.774600000000     0.022350000000     0.872000000000     0          
T        Si     0.725400000000     0.103250000000     0.961533333333     0          
T        Si     0.725400000000     0.477650000000     0.705333333333     0          
T        Si     0.774600000000     0.396750000000     0.794866666667     0          
T        Si     0.774600000000     0.477650000000     0.794666666667     0          
T        Si     0.725400000000     0.396750000000     0.705133333333     0          
T        Si     0.725400000000     0.022350000000     0.961333333333     0          
T        Si     0.774600000000     0.103250000000     0.871800000000     0          
T        Si     0.725400000000     0.727650000000     0.128000000000     0          
T        Si     0.774600000000     0.646750000000     0.038466666667     0          
T        Si     0.774600000000     0.772350000000     0.294666666667     0          
T        Si     0.725400000000     0.853250000000     0.205133333333     0          
T        Si     0.725400000000     0.772350000000     0.205333333333     0          
T        Si     0.774600000000     0.853250000000     0.294866666667     0          
T        Si     0.774600000000     0.727650000000     0.038666666667     0          
T        Si     0.725400000000     0.646750000000     0.128200000000     0          
T        Si     0.941266666667     0.772350000000     0.205333333333     0          
T        Si     0.892066666667     0.853250000000     0.294866666667     0          
T        Si     0.892066666667     0.727650000000     0.038666666667     0          
T        Si     0.941266666667     0.646750000000     0.128200000000     0          
T        Si     0.941266666667     0.727650000000     0.128000000000     0          
T        Si     0.892066666667     0.646750000000     0.038466666667     0          
T        Si     0.892066666667     0.772350000000     0.294666666667     0          
T        Si     0.941266666667     0.853250000000     0.205133333333     0          
T        Si     0.892066666667     0.977650000000     0.128000000000     0          
T        Si     0.941266666667     0.896750000000     0.038466666667     0          
T        Si     0.941266666667     0.522350000000     0.294666666667     0          
T        Si     0.892066666667     0.603250000000     0.205133333333     0          
T        Si     0.892066666667     0.522350000000     0.205333333333     0          
T        Si     0.941266666667     0.603250000000     0.294866666667     0          
T        Si     0.941266666667     0.977650000000     0.038666666667     0          
T        Si     0.892066666667     0.896750000000     0.128200000000     0          
T        Si     0.774600000000     0.522350000000     0.205333333333     0          
T        Si     0.725400000000     0.603250000000     0.294866666667     0          
T        Si     0.725400000000     0.977650000000     0.038666666667     0          
T        Si     0.774600000000     0.896750000000     0.128200000000     0          
T        Si     0.774600000000     0.977650000000     0.128000000000     0          
T        Si     0.725400000000     0.896750000000     0.038466666667     0          
T        Si     0.725400000000     0.522350000000     0.294666666667     0          
T        Si     0.774600000000     0.603250000000     0.205133333333     0          
T        Si     0.725400000000     0.727650000000     0.461333333333     0          
T        Si     0.774600000000     0.646750000000     0.371800000000     0          
T        Si     0.774600000000     0.772350000000     0.628000000000     0          
T        Si     0.725400000000     0.853250000000     0.538466666667     0          
T        Si     0.725400000000     0.772350000000     0.538666666667     0          
T        Si     0.774600000000     0.853250000000     0.628200000000     0          
T        Si     0.774600000000     0.727650000000     0.372000000000     0          
T        Si     0.725400000000     0.646750000000     0.461533333333     0          
T        Si     0.941266666667     0.772350000000     0.538666666667     0          
T        Si     0.892066666667     0.853250000000     0.628200000000     0          
T        Si     0.892066666667     0.727650000000     0.372000000000     0          
T        Si     0.941266666667     0.646750000000     0.461533333333     0          
T        Si     0.941266666667     0.727650000000     0.461333333333     0          
T        Si     0.892066666667     0.646750000000     0.371800000000     0          
T        Si     0.892066666667     0.772350000000     0.628000000000     0          
T        Si     0.941266666667     0.853250000000     0.538466666667     0          
T        Si     0.892066666667     0.977650000000     0.461333333333     0          
T        Si     0.941266666667     0.896750000000     0.371800000000     0          
T        Si     0.941266666667     0.522350000000     0.628000000000     0          
T        Si     0.892066666667     0.603250000000     0.538466666667     0          
T        Si     0.892066666667     0.522350000000     0.538666666667     0          
T        Si     0.941266666667     0.603250000000     0.628200000000     0          
T        Si     0.941266666667     0.977650000000     0.372000000000     0          
T        Si     0.892066666667     0.896750000000     0.461533333333     0          
T        Si     0.774600000000     0.522350000000     0.538666666667     0          
T        Si     0.725400000000     0.603250000000     0.628200000000     0          
T        Si     0.725400000000     0.977650000000     0.372000000000     0          
T        Si     0.774600000000     0.896750000000     0.461533333333     0          
T        Si     0.774600000000     0.977650000000     0.461333333333     0          
T        Si     0.725400000000     0.896750000000     0.371800000000     0          
T        Si     0.725400000000     0.522350000000     0.628000000000     0          
T        Si     0.774600000000     0.603250000000     0.538466666667     0          
T        Si     0.725400000000     0.727650000000     0.794666666667     0          
T        Si     0.774600000000     0.646750000000     0.705133333333     0          
T        Si     0.774600000000     0.772350000000     0.961333333333     0          
T        Si     0.725400000000     0.853250000000     0.871800000000     0          
T        Si     0.725400000000     0.772350000000     0.872000000000     0          
T        Si     0.774600000000     0.853250000000     0.961533333333     0          
T        Si     0.774600000000     0.727650000000     0.705333333333     0          
T        Si     0.725400000000     0.646750000000     0.794866666667     0          
T        Si     0.941266666667     0.772350000000     0.872000000000     0          
T        Si     0.892066666667     0.853250000000     0.961533333333     0          
T        Si     0.892066666667     0.727650000000     0.705333333333     0          
T        Si     0.941266666667     0.646750000000     0.794866666667     0          
T        Si     0.941266666667     0.727650000000     0.794666666667     0          
T        Si     0.892066666667     0.646750000000     0.705133333333     0          
T        Si     0.892066666667     0.772350000000     0.961333333333     0          
T        Si     0.941266666667     0.853250000000     0.871800000000     0          
T        Si     0.892066666667     0.977650000000     0.794666666667     0          
T        Si     0.941266666667     0.896750000000     0.705133333333     0          
T        Si     0.941266666667     0.522350000000     0.961333333333     0          
T        Si     0.892066666667     0.603250000000     0.871800000000     0          
T        Si     0.892066666667     0.522350000000     0.872000000000     0          
T        Si     0.941266666667     0.603250000000     0.961533333333     0          
T        Si     0.941266666667     0.977650000000     0.705333333333     0          
T        Si     0.892066666667     0.896750000000     0.794866666667     0          
T        Si     0.774600000000     0.522350000000     0.872000000000     0          
T        Si     0.725400000000     0.603250000000     0.961533333333     0          
T        Si     0.725400000000     0.977650000000     0.705333333333     0          
T        Si     0.774600000000     0.896750000000     0.794866666667     0          
T        Si     0.774600000000     0.977650000000     0.794666666667     0          
T        Si     0.725400000000     0.896750000000     0.705133333333     0          
T        Si     0.725400000000     0.522350000000     0.961333333333     0          
T        Si     0.774600000000     0.603250000000     0.871800000000     0          
O        O      0.082066666667     0.250000000000     0.166666666667     0          
O        O      0.083333333333     0.239500000000     0.083333333333     0          
O        O      0.068900000000     0.187250000000     0.135966666667     0          
O        O      0.000000000000     0.234600000000     0.126000000000     0          
O        O      0.083333333333     0.135250000000     0.083333333333     0          
O        O      0.083333333333     0.125000000000     0.000000000000     0          
O        O      0.166666666667     0.139650000000     0.039866666667     0          
O        O      0.084600000000     0.250000000000     0.000000000000     0          
O        O      0.083333333333     0.260500000000     0.250000000000     0          
O        O      0.097766666667     0.312750000000     0.302633333333     0          
O        O      0.166666666667     0.265400000000     0.292666666667     0          
O        O      0.083333333333     0.364750000000     0.250000000000     0          
O        O      0.083333333333     0.375000000000     0.166666666667     0          
O        O      0.000000000000     0.360350000000     0.206533333333     0          
O        O      0.068900000000     0.312750000000     0.197366666667     0          
O        O      0.000000000000     0.265400000000     0.207333333333     0          
O        O      0.083333333333     0.375000000000     0.000000000000     0          
O        O      0.166666666667     0.360350000000     0.293466666667     0          
O        O      0.097766666667     0.187250000000     0.030700000000     0          
O        O      0.166666666667     0.234600000000     0.040666666667     0          
O        O      0.083333333333     0.125000000000     0.166666666667     0          
O        O      0.000000000000     0.139650000000     0.126800000000     0          
O        O      0.251266666667     0.250000000000     0.166666666667     0          
O        O      0.250000000000     0.260500000000     0.250000000000     0          
O        O      0.264433333333     0.312750000000     0.197366666667     0          
O        O      0.250000000000     0.364750000000     0.250000000000     0          
O        O      0.250000000000     0.375000000000     0.000000000000     0          
O        O      0.248733333333     0.250000000000     0.000000000000     0          
O        O      0.250000000000     0.239500000000     0.083333333333     0          
O        O      0.235566666667     0.187250000000     0.030700000000     0          
O        O      0.250000000000     0.135250000000     0.083333333333     0          
O        O      0.250000000000     0.125000000000     0.166666666667     0          
O        O      0.264433333333     0.187250000000     0.135966666667     0          
O        O      0.250000000000     0.125000000000     0.000000000000     0          
O        O      0.235566666667     0.312750000000     0.302633333333     0          
O        O      0.250000000000     0.375000000000     0.166666666667     0          
O        O      0.248733333333     0.000000000000     0.166666666667     0          
O        O      0.250000000000     0.489500000000     0.083333333333     0          
O        O      0.235566666667     0.437250000000     0.135966666667     0          
O        O      0.166666666667     0.484600000000     0.126000000000     0          
O        O      0.250000000000     0.385250000000     0.083333333333     0          
O        O      0.000000000000     0.389650000000     0.039866666667     0          
O        O      0.251266666667     0.000000000000     0.000000000000     0          
O        O      0.250000000000     0.010500000000     0.250000000000     0          
O        O      0.264433333333     0.062750000000     0.302633333333     0          
O        O      0.000000000000     0.015400000000     0.292666666667     0          
O        O      0.250000000000     0.114750000000     0.250000000000     0          
O        O      0.166666666667     0.110350000000     0.206533333333     0          
O        O      0.235566666667     0.062750000000     0.197366666667     0          
O        O      0.166666666667     0.015400000000     0.207333333333     0          
O        O      0.000000000000     0.110350000000     0.293466666667     0          
O        O      0.264433333333     0.437250000000     0.030700000000     0          
O        O      0.000000000000     0.484600000000     0.040666666667     0          
O        O      0.166666666667     0.389650000000     0.126800000000     0          
O        O      0.084600000000     0.000000000000     0.166666666667     0          
O        O      0.083333333333     0.010500000000     0.250000000000     0          
O        O      0.097766666667     0.062750000000     0.197366666667     0          
O        O      0.083333333333     0.114750000000     0.250000000000     0          
O        O      0.082066666667     0.000000000000     0.000000000000     0          
O        O      0.083333333333     0.489500000000     0.083333333333     0          
O        O      0.068900000000     0.437250000000     0.030700000000     0          
O        O      0.083333333333     0.385250000000     0.083333333333     0          
O        O      0.097766666667     0.437250000000     0.135966666667     0          
O        O      0.068900000000     0.062750000000     0.302633333333     0          
O        O      0.082066666667     0.250000000000     0.500000000000     0          
O        O      0.083333333333     0.239500000000     0.416666666667     0          
O        O      0.068900000000     0.187250000000     0.469300000000     0          
O        O      0.000000000000     0.234600000000     0.459333333333     0          
O        O      0.083333333333     0.135250000000     0.416666666667     0          
O        O      0.083333333333     0.125000000000     0.333333333333     0          
O        O      0.166666666667     0.139650000000     0.373200000000     0          
O        O      0.084600000000     0.250000000000     0.333333333333     0          
O        O      0.083333333333     0.260500000000     0.583333333333     0          
O        O      0.097766666667     0.312750000000     0.635966666667     0          
O        O      0.166666666667     0.265400000000     0.626000000000     0          
O        O      0.083333333333     0.364750000000     0.583333333333     0          
O        O      0.083333333333     0.375000000000     0.500000000000     0          
O        O      0.000000000000     0.360350000000     0.539866666667     0          
O        O      0.068900000000     0.312750000000     0.530700000000     0          
O        O      0.000000000000     0.265400000000     0.540666666667     0          
O        O      0.083333333333     0.375000000000     0.333333333333     0          
O        O      0.166666666667     0.360350000000     0.626800000000     0          
O        O      0.097766666667     0.187250000000     0.364033333333     0          
O        O      0.166666666667     0.234600000000     0.374000000000     0          
O        O      0.083333333333     0.125000000000     0.500000000000     0          
O        O      0.000000000000     0.139650000000     0.460133333333     0          
O        O      0.251266666667     0.250000000000     0.500000000000     0          
O        O      0.250000000000     0.260500000000     0.583333333333     0          
O        O      0.264433333333     0.312750000000     0.530700000000     0          
O        O      0.250000000000     0.364750000000     0.583333333333     0          
O        O      0.250000000000     0.375000000000     0.333333333333     0          
O        O      0.248733333333     0.250000000000     0.333333333333     0          
O        O      0.250000000000     0.239500000000     0.416666666667     0          
O        O      0.235566666667     0.187250000000     0.364033333333     0          
O        O      0.250000000000     0.135250000000     0.416666666667     0          
O        O      0.250000000000     0.125000000000     0.500000000000     0          
O        O      0.264433333333     0.187250000000     0.469300000000     0          
O        O      0.250000000000     0.125000000000     0.333333333333     0          
O        O      0.235566666667     0.312750000000     0.635966666667     0          
O        O      0.250000000000     0.375000000000     0.500000000000     0          
O        O      0.248733333333     0.000000000000     0.500000000000     0          
O        O      0.250000000000     0.489500000000     0.416666666667     0          
O        O      0.235566666667     0.437250000000     0.469300000000     0          
O        O      0.166666666667     0.484600000000     0.459333333333     0          
O        O      0.250000000000     0.385250000000     0.416666666667     0          
O        O      0.000000000000     0.389650000000     0.373200000000     0          
O        O      0.251266666667     0.000000000000     0.333333333333     0          
O        O      0.250000000000     0.010500000000     0.583333333333     0          
O        O      0.264433333333     0.062750000000     0.635966666667     0          
O        O      0.000000000000     0.015400000000     0.626000000000     0          
O        O      0.250000000000     0.114750000000     0.583333333333     0          
O        O      0.166666666667     0.110350000000     0.539866666667     0          
O        O      0.235566666667     0.062750000000     0.530700000000     0          
O        O      0.166666666667     0.015400000000     0.540666666667     0          
O        O      0.000000000000     0.110350000000     0.626800000000     0          
O        O      0.264433333333     0.437250000000     0.364033333333     0          
O        O      0.000000000000     0.484600000000     0.374000000000     0          
O        O      0.166666666667     0.389650000000     0.460133333333     0          
O        O      0.084600000000     0.000000000000     0.500000000000     0          
O        O      0.083333333333     0.010500000000     0.583333333333     0          
O        O      0.097766666667     0.062750000000     0.530700000000     0          
O        O      0.083333333333     0.114750000000     0.583333333333     0          
O        O      0.082066666667     0.000000000000     0.333333333333     0          
O        O      0.083333333333     0.489500000000     0.416666666667     0          
O        O      0.068900000000     0.437250000000     0.364033333333     0          
O        O      0.083333333333     0.385250000000     0.416666666667     0          
O        O      0.097766666667     0.437250000000     0.469300000000     0          
O        O      0.068900000000     0.062750000000     0.635966666667     0          
O        O      0.082066666667     0.250000000000     0.833333333333     0          
O        O      0.083333333333     0.239500000000     0.750000000000     0          
O        O      0.068900000000     0.187250000000     0.802633333333     0          
O        O      0.000000000000     0.234600000000     0.792666666667     0          
O        O      0.083333333333     0.135250000000     0.750000000000     0          
O        O      0.083333333333     0.125000000000     0.666666666667     0          
O        O      0.166666666667     0.139650000000     0.706533333333     0          
O        O      0.084600000000     0.250000000000     0.666666666667     0          
O        O      0.083333333333     0.260500000000     0.916666666667     0          
O        O      0.097766666667     0.312750000000     0.969300000000     0          
O        O      0.166666666667     0.265400000000     0.959333333333     0          
O        O      0.083333333333     0.364750000000     0.916666666667     0          
O        O      0.083333333333     0.375000000000     0.833333333333     0          
O        O      0.000000000000     0.360350000000     0.873200000000     0          
O        O      0.068900000000     0.312750000000     0.864033333333     0          
O        O      0.000000000000     0.265400000000     0.874000000000     0          
O        O      0.083333333333     0.375000000000     0.666666666667     0          
O        O      0.166666666667     0.360350000000     0.960133333333     0          
O        O      0.097766666667     0.187250000000     0.697366666667     0          
O        O      0.166666666667     0.234600000000     0.707333333333     0          
O        O      0.083333333333     0.125000000000     0.833333333333     0          
O        O      0.000000000000     0.139650000000     0.793466666667     0          
O        O      0.251266666667     0.250000000000     0.833333333333     0          
O        O      0.250000000000     0.260500000000     0.916666666667     0          
O        O      0.264433333333     0.312750000000     0.864033333333     0          
O        O      0.250000000000     0.364750000000     0.916666666667     0          
O        O      0.250000000000     0.375000000000     0.666666666667     0          
O        O      0.248733333333     0.250000000000     0.666666666667     0          
O        O      0.250000000000     0.239500000000     0.750000000000     0          
O        O      0.235566666667     0.187250000000     0.697366666667     0          
O        O      0.250000000000     0.135250000000     0.750000000000     0          
O        O      0.250000000000     0.125000000000     0.833333333333     0          
O        O      0.264433333333     0.187250000000     0.802633333333     0          
O        O      0.250000000000     0.125000000000     0.666666666667     0          
O        O      0.235566666667     0.312750000000     0.969300000000     0          
O        O      0.250000000000     0.375000000000     0.833333333333     0          
O        O      0.248733333333     0.000000000000     0.833333333333     0          
O        O      0.250000000000     0.489500000000     0.750000000000     0          
O        O      0.235566666667     0.437250000000     0.802633333333     0          
O        O      0.166666666667     0.484600000000     0.792666666667     0          
O        O      0.250000000000     0.385250000000     0.750000000000     0          
O        O      0.000000000000     0.389650000000     0.706533333333     0          
O        O      0.251266666667     0.000000000000     0.666666666667     0          
O        O      0.250000000000     0.010500000000     0.916666666667     0          
O        O      0.264433333333     0.062750000000     0.969300000000     0          
O        O      0.000000000000     0.015400000000     0.959333333333     0          
O        O      0.250000000000     0.114750000000     0.916666666667     0          
O        O      0.166666666667     0.110350000000     0.873200000000     0          
O        O      0.235566666667     0.062750000000     0.864033333333     0          
O        O      0.166666666667     0.015400000000     0.874000000000     0          
O        O      0.000000000000     0.110350000000     0.960133333333     0          
O        O      0.264433333333     0.437250000000     0.697366666667     0          
O        O      0.000000000000     0.484600000000     0.707333333333     0          
O        O      0.166666666667     0.389650000000     0.793466666667     0          
O        O      0.084600000000     0.000000000000     0.833333333333     0          
O        O      0.083333333333     0.010500000000     0.916666666667     0          
O        O      0.097766666667     0.062750000000     0.864033333333     0          
O        O      0.083333333333     0.114750000000     0.916666666667     0          
O        O      0.082066666667     0.000000000000     0.666666666667     0          
O        O      0.083333333333     0.489500000000     0.750000000000     0          
O        O      0.068900000000     0.437250000000     0.697366666667     0          
O        O      0.083333333333     0.385250000000     0.750000000000     0          
O        O      0.097766666667     0.437250000000     0.802633333333     0          
O        O      0.068900000000     0.062750000000     0.969300000000     0          
O        O      0.082066666667     0.750000000000     0.166666666667     0          
O        O      0.083333333333     0.739500000000     0.083333333333     0          
O        O      0.068900000000     0.687250000000     0.135966666667     0          
O        O      0.000000000000     0.734600000000     0.126000000000     0          
O        O      0.083333333333     0.635250000000     0.083333333333     0          
O        O      0.083333333333     0.625000000000     0.000000000000     0          
O        O      0.166666666667     0.639650000000     0.039866666667     0          
O        O      0.084600000000     0.750000000000     0.000000000000     0          
O        O      0.083333333333     0.760500000000     0.250000000000     0          
O        O      0.097766666667     0.812750000000     0.302633333333     0          
O        O      0.166666666667     0.765400000000     0.292666666667     0          
O        O      0.083333333333     0.864750000000     0.250000000000     0          
O        O      0.083333333333     0.875000000000     0.166666666667     0          
O        O      0.000000000000     0.860350000000     0.206533333333     0          
O        O      0.068900000000     0.812750000000     0.197366666667     0          
O        O      0.000000000000     0.765400000000     0.207333333333     0          
O        O      0.083333333333     0.875000000000     0.000000000000     0          
O        O      0.166666666667     0.860350000000     0.293466666667     0          
O        O      0.097766666667     0.687250000000     0.030700000000     0          
O        O      0.166666666667     0.734600000000     0.040666666667     0          
O        O      0.083333333333     0.625000000000     0.166666666667     0          
O        O      0.000000000000     0.639650000000     0.126800000000     0          
O        O      0.251266666667     0.750000000000     0.166666666667     0          
O        O      0.250000000000     0.760500000000     0.250000000000     0          
O        O      0.264433333333     0.812750000000     0.197366666667     0          
O        O      0.250000000000     0.864750000000     0.250000000000     0          
O        O      0.250000000000     0.875000000000     0.000000000000     0          
O        O      0.248733333333     0.750000000000     0.000000000000     0          
O        O      0.250000000000     0.739500000000     0.083333333333     0          
O        O      0.235566666667     0.687250000000     0.030700000000     0          
O        O      0.250000000000     0.635250000000     0.083333333333     0          
O        O      0.250000000000     0.625000000000     0.166666666667     0          
O        O      0.264433333333     0.687250000000     0.135966666667     0          
O        O      0.250000000000     0.625000000000     0.000000000000     0          
O        O      0.235566666667     0.812750000000     0.302633333333     0          
O        O      0.250000000000     0.875000000000     0.166666666667     0          
O        O      0.248733333333     0.500000000000     0.166666666667     0          
O        O      0.250000000000     0.989500000000     0.083333333333     0          
O        O      0.235566666667     0.937250000000     0.135966666667     0          
O        O      0.166666666667     0.984600000000     0.126000000000     0          
O        O      0.250000000000     0.885250000000     0.083333333333     0          
O        O      0.000000000000     0.889650000000     0.039866666667     0          
O        O      0.251266666667     0.500000000000     0.000000000000     0          
O        O      0.250000000000     0.510500000000     0.250000000000     0          
O        O      0.264433333333     0.562750000000     0.302633333333     0          
O        O      0.000000000000     0.515400000000     0.292666666667     0          
O        O      0.250000000000     0.614750000000     0.250000000000     0          
O        O      0.166666666667     0.610350000000     0.206533333333     0          
O        O      0.235566666667     0.562750000000     0.197366666667     0          
O        O      0.166666666667     0.515400000000     0.207333333333     0          
O        O      0.000000000000     0.610350000000     0.293466666667     0          
O        O      0.264433333333     0.937250000000     0.030700000000     0          
O        O      0.000000000000     0.984600000000     0.040666666667     0          
O        O      0.166666666667     0.889650000000     0.126800000000     0          
O        O      0.084600000000     0.500000000000     0.166666666667     0          
O        O      0.083333333333     0.510500000000     0.250000000000     0          
O        O      0.097766666667     0.562750000000     0.197366666667     0          
O        O      0.083333333333     0.614750000000     0.250000000000     0          
O        O      0.082066666667     0.500000000000     0.000000000000     0          
O        O      0.083333333333     0.989500000000     0.083333333333     0          
O        O      0.068900000000     0.937250000000     0.030700000000     0          
O        O      0.083333333333     0.885250000000     0.083333333333     0          
O        O      0.097766666667     0.937250000000     0.135966666667     0          
O        O      0.068900000000     0.562750000000     0.302633333333     0          
O        O      0.082066666667     0.750000000000     0.500000000000     0          
O        O      0.083333333333     0.739500000000     0.416666666667     0          
O        O      0.068900000000     0.687250000000     0.469300000000     0          
O        O      0.000000000000     0.734600000000     0.459333333333     0          
O        O      0.083333333333     0.635250000000     0.416666666667     0          
O        O      0.083333333333     0.625000000000     0.333333333333     0          
O        O      0.166666666667     0.639650000000     0.373200000000     0          
O        O      0.084600000000     0.750000000000     0.333333333333     0          
O        O      0.083333333333     0.760500000000     0.583333333333     0          
O        O      0.097766666667     0.812750000000     0.635966666667     0          
O        O      0.166666666667     0.765400000000     0.626000000000     0          
O        O      0.083333333333     0.864750000000     0.583333333333     0          
O        O      0.083333333333     0.875000000000     0.500000000000     0          
O        O      0.000000000000     0.860350000000     0.539866666667     0          
O        O      0.068900000000     0.812750000000     0.530700000000     0          
O        O      0.000000000000     0.765400000000     0.540666666667     0          
O        O      0.083333333333     0.875000000000     0.333333333333     0          
O        O      0.166666666667     0.860350000000     0.626800000000     0          
O        O      0.097766666667     0.687250000000     0.364033333333     0          
O        O      0.166666666667     0.734600000000     0.374000000000     0          
O        O      0.083333333333     0.625000000000     0.500000000000     0          
O        O      0.000000000000     0.639650000000     0.460133333333     0          
O        O      0.251266666667     0.750000000000     0.500000000000     0          
O        O      0.250000000000     0.760500000000     0.583333333333     0          
O        O      0.264433333333     0.812750000000     0.530700000000     0          
O        O      0.250000000000     0.864750000000     0.583333333333     0          
O        O      0.250000000000     0.875000000000     0.333333333333     0          
O        O      0.248733333333     0.750000000000     0.333333333333     0          
O        O      0.250000000000     0.739500000000     0.416666666667     0          
O        O      0.235566666667     0.687250000000     0.364033333333     0          
O        O      0.250000000000     0.635250000000     0.416666666667     0          
O        O      0.250000000000     0.625000000000     0.500000000000     0          
O        O      0.264433333333     0.687250000000     0.469300000000     0          
O        O      0.250000000000     0.625000000000     0.333333333333     0          
O        O      0.235566666667     0.812750000000     0.635966666667     0          
O        O      0.250000000000     0.875000000000     0.500000000000     0          
O        O      0.248733333333     0.500000000000     0.500000000000     0          
O        O      0.250000000000     0.989500000000     0.416666666667     0          
O        O      0.235566666667     0.937250000000     0.469300000000     0          
O        O      0.166666666667     0.984600000000     0.459333333333     0          
O        O      0.250000000000     0.885250000000     0.416666666667     0          
O        O      0.000000000000     0.889650000000     0.373200000000     0          
O        O      0.251266666667     0.500000000000     0.333333333333     0          
O        O      0.250000000000     0.510500000000     0.583333333333     0          
O        O      0.264433333333     0.562750000000     0.635966666667     0          
O        O      0.000000000000     0.515400000000     0.626000000000     0          
O        O      0.250000000000     0.614750000000     0.583333333333     0          
O        O      0.166666666667     0.610350000000     0.539866666667     0          
O        O      0.235566666667     0.562750000000     0.530700000000     0          
O        O      0.166666666667     0.515400000000     0.540666666667     0          
O        O      0.000000000000     0.610350000000     0.626800000000     0          
O        O      0.264433333333     0.937250000000     0.364033333333     0          
O        O      0.000000000000     0.984600000000     0.374000000000     0          
O        O      0.166666666667     0.889650000000     0.460133333333     0          
O        O      0.084600000000     0.500000000000     0.500000000000     0          
O        O      0.083333333333     0.510500000000     0.583333333333     0          
O        O      0.097766666667     0.562750000000     0.530700000000     0          
O        O      0.083333333333     0.614750000000     0.583333333333     0          
O        O      0.082066666667     0.500000000000     0.333333333333     0          
O        O      0.083333333333     0.989500000000     0.416666666667     0          
O        O      0.068900000000     0.937250000000     0.364033333333     0          
O        O      0.083333333333     0.885250000000     0.416666666667     0          
O        O      0.097766666667     0.937250000000     0.469300000000     0          
O        O      0.068900000000     0.562750000000     0.635966666667     0          
O        O      0.082066666667     0.750000000000     0.833333333333     0          
O        O      0.083333333333     0.739500000000     0.750000000000     0          
O        O      0.068900000000     0.687250000000     0.802633333333     0          
O        O      0.000000000000     0.734600000000     0.792666666667     0          
O        O      0.083333333333     0.635250000000     0.750000000000     0          
O        O      0.083333333333     0.625000000000     0.666666666667     0          
O        O      0.166666666667     0.639650000000     0.706533333333     0          
O        O      0.084600000000     0.750000000000     0.666666666667     0          
O        O      0.083333333333     0.760500000000     0.916666666667     0          
O        O      0.097766666667     0.812750000000     0.969300000000     0          
O        O      0.166666666667     0.765400000000     0.959333333333     0          
O        O      0.083333333333     0.864750000000     0.916666666667     0          
O        O      0.083333333333     0.875000000000     0.833333333333     0          
O        O      0.000000000000     0.860350000000     0.873200000000     0          
O        O      0.068900000000     0.812750000000     0.864033333333     0          
O        O      0.000000000000     0.765400000000     0.874000000000     0          
O        O      0.083333333333     0.875000000000     0.666666666667     0          
O        O      0.166666666667     0.860350000000     0.960133333333     0          
O        O      0.097766666667     0.687250000000     0.697366666667     0          
O        O      0.166666666667     0.734600000000     0.707333333333     0          
O        O      0.083333333333     0.625000000000     0.833333333333     0          
O        O      0.000000000000     0.639650000000     0.793466666667     0          
O        O      0.251266666667     0.750000000000     0.833333333333     0          
O        O      0.250000000000     0.760500000000     0.916666666667     0          
O        O      0.264433333333     0.812750000000     0.864033333333     0          
O        O      0.250000000000     0.864750000000     0.916666666667     0          
O        O      0.250000000000     0.875000000000     0.666666666667     0          
O        O      0.248733333333     0.750000000000     0.666666666667     0          
O        O      0.250000000000     0.739500000000     0.750000000000     0          
O        O      0.235566666667     0.687250000000     0.697366666667     0          
O        O      0.250000000000     0.635250000000     0.750000000000     0          
O        O      0.250000000000     0.625000000000     0.833333333333     0          
O        O      0.264433333333     0.687250000000     0.802633333333     0          
O        O      0.250000000000     0.625000000000     0.666666666667     0          
O        O      0.235566666667     0.812750000000     0.969300000000     0          
O        O      0.250000000000     0.875000000000     0.833333333333     0          
O        O      0.248733333333     0.500000000000     0.833333333333     0          
O        O      0.250000000000     0.989500000000     0.750000000000     0          
O        O      0.235566666667     0.937250000000     0.802633333333     0          
O        O      0.166666666667     0.984600000000     0.792666666667     0          
O        O      0.250000000000     0.885250000000     0.750000000000     0          
O        O      0.000000000000     0.889650000000     0.706533333333     0          
O        O      0.251266666667     0.500000000000     0.666666666667     0          
O        O      0.250000000000     0.510500000000     0.916666666667     0          
O        O      0.264433333333     0.562750000000     0.969300000000     0          
O        O      0.000000000000     0.515400000000     0.959333333333     0          
O        O      0.250000000000     0.614750000000     0.916666666667     0          
O        O      0.166666666667     0.610350000000     0.873200000000     0          
O        O      0.235566666667     0.562750000000     0.864033333333     0          
O        O      0.166666666667     0.515400000000     0.874000000000     0          
O        O      0.000000000000     0.610350000000     0.960133333333     0          
O        O      0.264433333333     0.937250000000     0.697366666667     0          
O        O      0.000000000000     0.984600000000     0.707333333333     0          
O        O      0.166666666667     0.889650000000     0.793466666667     0          
O        O      0.084600000000     0.500000000000     0.833333333333     0          
O        O      0.083333333333     0.510500000000     0.916666666667     0          
O        O      0.097766666667     0.562750000000     0.864033333333     0          
O        O      0.083333333333     0.614750000000     0.916666666667     0          
O        O      0.082066666667     0.500000000000     0.666666666667     0          
O        O      0.083333333333     0.989500000000     0.750000000000     0          
O        O      0.068900000000     0.937250000000     0.697366666667     0          
O        O      0.083333333333     0.885250000000     0.750000000000     0          
O        O      0.097766666667     0.937250000000     0.802633333333     0          
O        O      0.068900000000     0.562750000000     0.969300000000     0          
O        O      0.415400000000     0.250000000000     0.166666666667     0          
O        O      0.416666666667     0.239500000000     0.083333333333     0          
O        O      0.402233333333     0.187250000000     0.135966666667     0          
O        O      0.333333333333     0.234600000000     0.126000000000     0          
O        O      0.416666666667     0.135250000000     0.083333333333     0          
O        O      0.416666666667     0.125000000000     0.000000000000     0          
O        O      0.500000000000     0.139650000000     0.039866666667     0          
O        O      0.417933333333     0.250000000000     0.000000000000     0          
O        O      0.416666666667     0.260500000000     0.250000000000     0          
O        O      0.431100000000     0.312750000000     0.302633333333     0          
O        O      0.500000000000     0.265400000000     0.292666666667     0          
O        O      0.416666666667     0.364750000000     0.250000000000     0          
O        O      0.416666666667     0.375000000000     0.166666666667     0          
O        O      0.333333333333     0.360350000000     0.206533333333     0          
O        O      0.402233333333     0.312750000000     0.197366666667     0          
O        O      0.333333333333     0.265400000000     0.207333333333     0          
O        O      0.416666666667     0.375000000000     0.000000000000     0          
O        O      0.500000000000     0.360350000000     0.293466666667     0          
O        O      0.431100000000     0.187250000000     0.030700000000     0          
O        O      0.500000000000     0.234600000000     0.040666666667     0          
O        O      0.416666666667     0.125000000000     0.166666666667     0          
O        O      0.333333333333     0.139650000000     0.126800000000     0          
O        O      0.584600000000     0.250000000000     0.166666666667     0          
O        O      0.583333333333     0.260500000000     0.250000000000     0          
O        O      0.597766666667     0.312750000000     0.197366666667     0          
O        O      0.583333333333     0.364750000000     0.250000000000     0          
O        O      0.583333333333     0.375000000000     0.000000000000     0          
O        O      0.582066666667     0.250000000000     0.000000000000     0          
O        O      0.583333333333     0.239500000000     0.083333333333     0          
O        O      0.568900000000     0.187250000000     0.030700000000     0          
O        O      0.583333333333     0.135250000000     0.083333333333     0          
O        O      0.583333333333     0.125000000000     0.166666666667     0          
O        O      0.597766666667     0.187250000000     0.135966666667     0          
O        O      0.583333333333     0.125000000000     0.000000000000     0          
O        O      0.568900000000     0.312750000000     0.302633333333     0          
O        O      0.583333333333     0.375000000000     0.166666666667     0          
O        O      0.582066666667     0.000000000000     0.166666666667     0          
O        O      0.583333333333     0.489500000000     0.083333333333     0          
O        O      0.568900000000     0.437250000000     0.135966666667     0          
O        O      0.500000000000     0.484600000000     0.126000000000     0          
O        O      0.583333333333     0.385250000000     0.083333333333     0          
O        O      0.333333333333     0.389650000000     0.039866666667     0          
O        O      0.584600000000     0.000000000000     0.000000000000     0          
O        O      0.583333333333     0.010500000000     0.250000000000     0          
O        O      0.597766666667     0.062750000000     0.302633333333     0          
O        O      0.333333333333     0.015400000000     0.292666666667     0          
O        O      0.583333333333     0.114750000000     0.250000000000     0          
O        O      0.500000000000     0.110350000000     0.206533333333     0          
O        O      0.568900000000     0.062750000000     0.197366666667     0          
O        O      0.500000000000     0.015400000000     0.207333333333     0          
O        O      0.333333333333     0.110350000000     0.293466666667     0          
O        O      0.597766666667     0.437250000000     0.030700000000     0          
O        O      0.333333333333     0.484600000000     0.040666666667     0          
O        O      0.500000000000     0.389650000000     0.126800000000     0          
O        O      0.417933333333     0.000000000000     0.166666666667     0          
O        O      0.416666666667     0.010500000000     0.250000000000     0          
O        O      0.431100000000     0.062750000000     0.197366666667     0          
O        O      0.416666666667     0.114750000000     0.250000000000     0          
O        O      0.415400000000     0.000000000000     0.000000000000     0          
O        O      0.416666666667     0.489500000000     0.083333333333     0          
O        O      0.402233333333     0.437250000000     0.030700000000     0          
O        O      0.416666666667     0.385250000000     0.083333333333     0          
O        O      0.431100000000     0.437250000000     0.135966666667     0          
O        O      0.402233333333     0.062750000000     0.302633333333     0          
O        O      0.415400000000     0.250000000000     0.500000000000     0          
O        O      0.416666666667     0.239500000000     0.416666666667     0          
O        O      0.402233333333     0.187250000000     0.469300000000     0          
O        O      0.333333333333     0.234600000000     0.459333333333     0          
O        O      0.416666666667     0.135250000000     0.416666666667     0          
O        O      0.416666666667     0.125000000000     0.333333333333     0          
O        O      0.500000000000     0.139650000000     0.373200000000     0          
O        O      0.417933333333     0.250000000000     0.333333333333     0          
O        O      0.416666666667     0.260500000000     0.583333333333     0          
O        O      0.431100000000     0.312750000000     0.635966666667     0          
O        O      0.500000000000     0.265400000000     0.626000000000     0          
O        O      0.416666666667     0.364750000000     0.583333333333     0          
O        O      0.416666666667     0.375000000000     0.500000000000     0          
O        O      0.333333333333     0.360350000000     0.539866666667     0          
O        O      0.402233333333     0.312750000000     0.530700000000     0          
O        O      0.333333333333     0.265400000000     0.540666666667     0          
O        O      0.416666666667     0.375000000000     0.333333333333     0          
O        O      0.500000000000     0.360350000000     0.626800000000     0          
O        O      0.431100000000     0.187250000000     0.364033333333     0          
O        O      0.500000000000     0.234600000000     0.374000000000     0          
O        O      0.416666666667     0.125000000000     0.500000000000     0          
O        O      0.333333333333     0.139650000000     0.460133333333     0          
O        O      0.584600000000     0.250000000000     0.500000000000     0          
O        O      0.583333333333     0.260500000000     0.583333333333     0          
O        O      0.597766666667     0.312750000000     0.530700000000     0          
O        O      0.583333333333     0.364750000000     0.583333333333     0          
O        O      0.583333333333     0.375000000000     0.333333333333     0          
O        O      0.582066666667     0.250000000000     0.333333333333     0          
O        O      0.583333333333     0.239500000000     0.416666666667     0          
O        O      0.568900000000     0.187250000000     0.364033333333     0          
O        O      0.583333333333     0.135250000000     0.416666666667     0          
O        O      0.583333333333     0.125000000000     0.500000000000     0          
O        O      0.597766666667     0.187250000000     0.469300000000     0          
O        O      0.583333333333     0.125000000000     0.333333333333     0          
O        O      0.568900000000     0.312750000000     0.635966666667     0          
O        O      0.583333333333     0.375000000000     0.500000000000     0          
O        O      0.582066666667     0.000000000000     0.500000000000     0          
O        O      0.583333333333     0.489500000000     0.416666666667     0          
O        O      0.568900000000     0.437250000000     0.469300000000     0          
O        O      0.500000000000     0.484600000000     0.459333333333     0          
O        O      0.583333333333     0.385250000000     0.416666666667     0          
O        O      0.333333333333     0.389650000000     0.373200000000     0          
O        O      0.584600000000     0.000000000000     0.333333333333     0          
O        O      0.583333333333     0.010500000000     0.583333333333     0          
O        O      0.597766666667     0.062750000000     0.635966666667     0          
O        O      0.333333333333     0.015400000000     0.626000000000     0          
O        O      0.583333333333     0.114750000000     0.583333333333     0          
O        O      0.500000000000     0.110350000000     0.539866666667     0          
O        O      0.568900000000     0.062750000000     0.530700000000     0          
O        O      0.500000000000     0.015400000000     0.540666666667     0          
O        O      0.333333333333     0.110350000000     0.626800000000     0          
O        O      0.597766666667     0.437250000000     0.364033333333     0          
O        O      0.333333333333     0.484600000000     0.374000000000     0          
O        O      0.500000000000     0.389650000000     0.460133333333     0          
O        O      0.417933333333     0.000000000000     0.500000000000     0          
O        O      0.416666666667     0.010500000000     0.583333333333     0          
O        O      0.431100000000     0.062750000000     0.530700000000     0          
O        O      0.416666666667     0.114750000000     0.583333333333     0          
O        O      0.415400000000     0.000000000000     0.333333333333     0          
O        O      0.416666666667     0.489500000000     0.416666666667     0          
O        O      0.402233333333     0.437250000000     0.364033333333     0          
O        O      0.416666666667     0.385250000000     0.416666666667     0          
O        O      0.431100000000     0.437250000000     0.469300000000     0          
O        O      0.402233333333     0.062750000000     0.635966666667     0          
O        O      0.415400000000     0.250000000000     0.833333333333     0          
O        O      0.416666666667     0.239500000000     0.750000000000     0          
O        O      0.402233333333     0.187250000000     0.802633333333     0          
O        O      0.333333333333     0.234600000000     0.792666666667     0          
O        O      0.416666666667     0.135250000000     0.750000000000     0          
O        O      0.416666666667     0.125000000000     0.666666666667     0          
O        O      0.500000000000     0.139650000000     0.706533333333     0          
O        O      0.417933333333     0.250000000000     0.666666666667     0          
O        O      0.416666666667     0.260500000000     0.916666666667     0          
O        O      0.431100000000     0.312750000000     0.969300000000     0          
O        O      0.500000000000     0.265400000000     0.959333333333     0          
O        O      0.416666666667     0.364750000000     0.916666666667     0          
O        O      0.416666666667     0.375000000000     0.833333333333     0          
O        O      0.333333333333     0.360350000000     0.873200000000     0          
O        O      0.402233333333     0.312750000000     0.864033333333     0          
O        O      0.333333333333     0.265400000000     0.874000000000     0          
O        O      0.416666666667     0.375000000000     0.666666666667     0          
O        O      0.500000000000     0.360350000000     0.960133333333     0          
O        O      0.431100000000     0.187250000000     0.697366666667     0          
O        O      0.500000000000     0.234600000000     0.707333333333     0          
O        O      0.416666666667     0.125000000000     0.833333333333     0          
O        O      0.333333333333     0.139650000000     0.793466666667     0          
O        O      0.584600000000     0.250000000000     0.833333333333     0          
O        O      0.583333333333     0.260500000000     0.916666666667     0          
O        O      0.597766666667     0.312750000000     0.864033333333     0          
O        O      0.583333333333     0.364750000000     0.916666666667     0          
O        O      0.583333333333     0.375000000000     0.666666666667     0          
O        O      0.582066666667     0.250000000000     0.666666666667     0          
O        O      0.583333333333     0.239500000000     0.750000000000     0          
O        O      0.568900000000     0.187250000000     0.697366666667     0          
O        O      0.583333333333     0.135250000000     0.750000000000     0          
O        O      0.583333333333     0.125000000000     0.833333333333     0          
O        O      0.597766666667     0.187250000000     0.802633333333     0          
O        O      0.583333333333     0.125000000000     0.666666666667     0          
O        O      0.568900000000     0.312750000000     0.969300000000     0          
O        O      0.583333333333     0.375000000000     0.833333333333     0          
O        O      0.582066666667     0.000000000000     0.833333333333     0          
O        O      0.583333333333     0.489500000000     0.750000000000     0          
O        O      0.568900000000     0.437250000000     0.802633333333     0          
O        O      0.500000000000     0.484600000000     0.792666666667     0          
O        O      0.583333333333     0.385250000000     0.750000000000     0          
O        O      0.333333333333     0.389650000000     0.706533333333     0          
O        O      0.584600000000     0.000000000000     0.666666666667     0          
O        O      0.583333333333     0.010500000000     0.916666666667     0          
O        O      0.597766666667     0.062750000000     0.969300000000     0          
O        O      0.333333333333     0.015400000000     0.959333333333     0          
O        O      0.583333333333     0.114750000000     0.916666666667     0          
O        O      0.500000000000     0.110350000000     0.873200000000     0          
O        O      0.568900000000     0.062750000000     0.864033333333     0          
O        O      0.500000000000     0.015400000000     0.874000000000     0          
O        O      0.333333333333     0.110350000000     0.960133333333     0          
O        O      0.597766666667     0.437250000000     0.697366666667     0          
O        O      0.333333333333     0.484600000000     0.707333333333     0          
O        O      0.500000000000     0.389650000000     0.793466666667     0          
O        O      0.417933333333     0.000000000000     0.833333333333     0          
O        O      0.416666666667     0.010500000000     0.916666666667     0          
O        O      0.431100000000     0.062750000000     0.864033333333     0          
O        O      0.416666666667     0.114750000000     0.916666666667     0          
O        O      0.415400000000     0.000000000000     0.666666666667     0          
O        O      0.416666666667     0.489500000000     0.750000000000     0          
O        O      0.402233333333     0.437250000000     0.697366666667     0          
O        O      0.416666666667     0.385250000000     0.750000000000     0          
O        O      0.431100000000     0.437250000000     0.802633333333     0          
O        O      0.402233333333     0.062750000000     0.969300000000     0          
O        O      0.415400000000     0.750000000000     0.166666666667     0          
O        O      0.416666666667     0.739500000000     0.083333333333     0          
O        O      0.402233333333     0.687250000000     0.135966666667     0          
O        O      0.333333333333     0.734600000000     0.126000000000     0          
O        O      0.416666666667     0.635250000000     0.083333333333     0          
O        O      0.416666666667     0.625000000000     0.000000000000     0          
O        O      0.500000000000     0.639650000000     0.039866666667     0          
O        O      0.417933333333     0.750000000000     0.000000000000     0          
O        O      0.416666666667     0.760500000000     0.250000000000     0          
O        O      0.431100000000     0.812750000000     0.302633333333     0          
O        O      0.500000000000     0.765400000000     0.292666666667     0          
O        O      0.416666666667     0.864750000000     0.250000000000     0          
O        O      0.416666666667     0.875000000000     0.166666666667     0          
O        O      0.333333333333     0.860350000000     0.206533333333     0          
O        O      0.402233333333     0.812750000000     0.197366666667     0          
O        O      0.333333333333     0.765400000000     0.207333333333     0          
O        O      0.416666666667     0.875000000000     0.000000000000     0          
O        O      0.500000000000     0.860350000000     0.293466666667     0          
O        O      0.431100000000     0.687250000000     0.030700000000     0          
O        O      0.500000000000     0.734600000000     0.040666666667     0          
O        O      0.416666666667     0.625000000000     0.166666666667     0          
O        O      0.333333333333     0.639650000000     0.126800000000     0          
O        O      0.584600000000     0.750000000000     0.166666666667     0          
O        O      0.583333333333     0.760500000000     0.250000000000     0          
O        O      0.597766666667     0.812750000000     0.197366666667     0          
O        O      0.583333333333     0.864750000000     0.250000000000     0          
O        O      0.583333333333     0.875000000000     0.000000000000     0          
O        O      0.582066666667     0.750000000000     0.000000000000     0          
O        O      0.583333333333     0.739500000000     0.083333333333     0          
O        O      0.568900000000     0.687250000000     0.030700000000     0          
O        O      0.583333333333     0.635250000000     0.083333333333     0          
O        O      0.583333333333     0.625000000000     0.166666666667     0          
O        O      0.597766666667     0.687250000000     0.135966666667     0          
O        O      0.583333333333     0.625000000000     0.000000000000     0          
O        O      0.568900000000     0.812750000000     0.302633333333     0          
O        O      0.583333333333     0.875000000000     0.166666666667     0          
O        O      0.582066666667     0.500000000000     0.166666666667     0          
O        O      0.583333333333     0.989500000000     0.083333333333     0          
O        O      0.568900000000     0.937250000000     0.135966666667     0          
O        O      0.500000000000     0.984600000000     0.126000000000     0          
O        O      0.583333333333     0.885250000000     0.083333333333     0          
O        O      0.333333333333     0.889650000000     0.039866666667     0          
O        O      0.584600000000     0.500000000000     0.000000000000     0          
O        O      0.583333333333     0.510500000000     0.250000000000     0          
O        O      0.597766666667     0.562750000000     0.302633333333     0          
O        O      0.333333333333     0.515400000000     0.292666666667     0          
O        O      0.583333333333     0.614750000000     0.250000000000     0          
O        O      0.500000000000     0.610350000000     0.206533333333     0          
O        O      0.568900000000     0.562750000000     0.197366666667     0          
O        O      0.500000000000     0.515400000000     0.207333333333     0          
O        O      0.333333333333     0.610350000000     0.293466666667     0          
O        O      0.597766666667     0.937250000000     0.030700000000     0          
O        O      0.333333333333     0.984600000000     0.040666666667     0          
O        O      0.500000000000     0.889650000000     0.126800000000     0          
O        O      0.417933333333     0.500000000000     0.166666666667     0          
O        O      0.416666666667     0.510500000000     0.250000000000     0          
O        O      0.431100000000     0.562750000000     0.197366666667     0          
O        O      0.416666666667     0.614750000000     0.250000000000     0          
O        O      0.415400000000     0.500000000000     0.000000000000     0          
O        O      0.416666666667     0.989500000000     0.083333333333     0          
O        O      0.402233333333     0.937250000000     0.030700000000     0          
O        O      0.416666666667     0.885250000000     0.083333333333     0          
O        O      0.431100000000     0.937250000000     0.135966666667     0          
O        O      0.402233333333     0.562750000000     0.302633333333     0          
O        O      0.415400000000     0.750000000000     0.500000000000     0          
O        O      0.416666666667     0.739500000000     0.416666666667     0          
O        O      0.402233333333     0.687250000000     0.469300000000     0          
O        O      0.333333333333     0.734600000000     0.459333333333     0          
O        O      0.416666666667     0.635250000000     0.416666666667     0          
O        O      0.416666666667     0.625000000000     0.333333333333     0          
O        O      0.500000000000     0.639650000000     0.373200000000     0          
O        O      0.417933333333     0.750000000000     0.333333333333     0          
O        O      0.416666666667     0.760500000000     0.583333333333     0          
O        O      0.431100000000     0.812750000000     0.635966666667     0          
O        O      0.500000000000     0.765400000000     0.626000000000     0          
O        O      0.416666666667     0.864750000000     0.583333333333     0          
O        O      0.416666666667     0.875000000000     0.500000000000     0          
O        O      0.333333333333     0.860350000000     0.539866666667     0          
O        O      0.402233333333     0.812750000000     0.530700000000     0          
O        O      0.333333333333     0.765400000000     0.540666666667     0          
O        O      0.416666666667     0.875000000000     0.333333333333     0          
O        O      0.500000000000     0.860350000000     0.626800000000     0          
O        O      0.431100000000     0.687250000000     0.364033333333     0          
O        O      0.500000000000     0.734600000000     0.374000000000     0          
O        O      0.416666666667     0.625000000000     0.500000000000     0          
O        O      0.333333333333     0.639650000000     0.460133333333     0          
O        O      0.584600000000     0.750000000000     0.500000000000     0          
O        O      0.583333333333     0.760500000000     0.583333333333     0          
O        O      0.597766666667     0.812750000000     0.530700000000     0          
O        O      0.583333333333     0.864750000000     0.583333333333     0          
O        O      0.583333333333     0.875000000000     0.333333333333     0          
O        O      0.582066666667     0.750000000000     0.333333333333     0          
O        O      0.583333333333     0.739500000000     0.416666666667     0          
O        O      0.568900000000     0.687250000000     0.364033333333     0          
O        O      0.583333333333     0.635250000000     0.416666666667     0          
O        O      0.583333333333     0.625000000000     0.500000000000     0          
O        O      0.597766666667     0.687250000000     0.469300000000     0          
O        O      0.583333333333     0.625000000000     0.333333333333     0          
O        O      0.568900000000     0.812750000000     0.635966666667     0          
O        O      0.583333333333     0.875000000000     0.500000000000     0          
O        O      0.582066666667     0.500000000000     0.500000000000     0          
O        O      0.583333333333     0.989500000000     0.416666666667     0          
O        O      0.568900000000     0.937250000000     0.469300000000     0          
O        O      0.500000000000     0.984600000000     0.459333333333     0          
O        O      0.583333333333     0.885250000000     0.416666666667     0          
O        O      0.333333333333     0.889650000000     0.373200000000     0          
O        O      0.584600000000     0.500000000000     0.333333333333     0          
O        O      0.583333333333     0.510500000000     0.583333333333     0          
O        O      0.597766666667     0.562750000000     0.635966666667     0          
O        O      0.333333333333     0.515400000000     0.626000000000     0          
O        O      0.583333333333     0.614750000000     0.583333333333     0          
O        O      0.500000000000     0.610350000000     0.539866666667     0          
O        O      0.568900000000     0.562750000000     0.530700000000     0          
O        O      0.500000000000     0.515400000000     0.540666666667     0          
O        O      0.333333333333     0.610350000000     0.626800000000     0          
O        O      0.597766666667     0.937250000000     0.364033333333     0          
O        O      0.333333333333     0.984600000000     0.374000000000     0          
O        O      0.500000000000     0.889650000000     0.460133333333     0          
O        O      0.417933333333     0.500000000000     0.500000000000     0          
O        O      0.416666666667     0.510500000000     0.583333333333     0          
O        O      0.431100000000     0.562750000000     0.530700000000     0          
O        O      0.416666666667     0.614750000000     0.583333333333     0          
O        O      0.415400000000     0.500000000000     0.333333333333     0          
O        O      0.416666666667     0.989500000000     0.416666666667     0          
O        O      0.402233333333     0.937250000000     0.364033333333     0          
O        O      0.416666666667     0.885250000000     0.416666666667     0          
O        O      0.431100000000     0.937250000000     0.469300000000     0          
O        O      0.402233333333     0.562750000000     0.635966666667     0          
O        O      0.415400000000     0.750000000000     0.833333333333     0          
O        O      0.416666666667     0.739500000000     0.750000000000     0          
O        O      0.402233333333     0.687250000000     0.802633333333     0          
O        O      0.333333333333     0.734600000000     0.792666666667     0          
O        O      0.416666666667     0.635250000000     0.750000000000     0          
O        O      0.416666666667     0.625000000000     0.666666666667     0          
O        O      0.500000000000     0.639650000000     0.706533333333     0          
O        O      0.417933333333     0.750000000000     0.666666666667     0          
O        O      0.416666666667     0.760500000000     0.916666666667     0          
O        O      0.431100000000     0.812750000000     0.969300000000     0          
O        O      0.500000000000     0.765400000000     0.959333333333     0          
O        O      0.416666666667     0.864750000000     0.916666666667     0          
O        O      0.416666666667     0.875000000000     0.833333333333     0          
O        O      0.333333333333     0.860350000000     0.873200000000     0          
O        O      0.402233333333     0.812750000000     0.864033333333     0          
O        O      0.333333333333     0.765400000000     0.874000000000     0          
O        O      0.416666666667     0.875000000000     0.666666666667     0          
O        O      0.500000000000     0.860350000000     0.960133333333     0          
O        O      0.431100000000     0.687250000000     0.697366666667     0          
O        O      0.500000000000     0.734600000000     0.707333333333     0          
O        O      0.416666666667     0.625000000000     0.833333333333     0          
O        O      0.333333333333     0.639650000000     0.793466666667     0          
O        O      0.584600000000     0.750000000000     0.833333333333     0          
O        O      0.583333333333     0.760500000000     0.916666666667     0          
O        O      0.597766666667     0.812750000000     0.864033333333     0          
O        O      0.583333333333     0.864750000000     0.916666666667     0          
O        O      0.583333333333     0.875000000000     0.666666666667     0          
O        O      0.582066666667     0.750000000000     0.666666666667     0          
O        O      0.583333333333     0.739500000000     0.750000000000     0          
O        O      0.568900000000     0.687250000000     0.697366666667     0          
O        O      0.583333333333     0.635250000000     0.750000000000     0          
O        O      0.583333333333     0.625000000000     0.833333333333     0          
O        O      0.597766666667     0.687250000000     0.802633333333     0          
O        O      0.583333333333     0.625000000000     0.666666666667     0          
O        O      0.568900000000     0.812750000000     0.969300000000     0          
O        O      0.583333333333     0.875000000000     0.833333333333     0          
O        O      0.582066666667     0.500000000000     0.833333333333     0          
O        O      0.583333333333     0.989500000000     0.750000000000     0          
O        O      0.568900000000     0.937250000000     0.802633333333     0          
O        O      0.500000000000     0.984600000000     0.792666666667     0          
O        O      0.583333333333     0.885250000000     0.750000000000     0          
O        O      0.333333333333     0.889650000000     0.706533333333     0          
O        O      0.584600000000     0.500000000000     0.666666666667     0          
O        O      0.583333333333     0.510500000000     0.916666666667     0          
O        O      0.597766666667     0.562750000000     0.969300000000     0          
O        O      0.333333333333     0.515400000000     0.959333333333     0          
O        O      0.583333333333     0.614750000000     0.916666666667     0          
O        O      0.500000000000     0.610350000000     0.873200000000     0          
O        O      0.568900000000     0.562750000000     0.864033333333     0          
O        O      0.500000000000     0.515400000000     0.874000000000     0          
O        O      0.333333333333     0.610350000000     0.960133333333     0          
O        O      0.597766666667     0.937250000000     0.697366666667     0          
O        O      0.333333333333     0.984600000000     0.707333333333     0          
O        O      0.500000000000     0.889650000000     0.793466666667     0          
O        O      0.417933333333     0.500000000000     0.833333333333     0          
O        O      0.416666666667     0.510500000000     0.916666666667     0          
O        O      0.431100000000     0.562750000000     0.864033333333     0          
O        O      0.416666666667     0.614750000000     0.916666666667     0          
O        O      0.415400000000     0.500000000000     0.666666666667     0          
O        O      0.416666666667     0.989500000000     0.750000000000     0          
O        O      0.402233333333     0.937250000000     0.697366666667     0          
O        O      0.416666666667     0.885250000000     0.750000000000     0          
O        O      0.431100000000     0.937250000000     0.802633333333     0          
O        O      0.402233333333     0.562750000000     0.969300000000     0          
O        O      0.748733333333     0.250000000000     0.166666666667     0          
O        O      0.750000000000     0.239500000000     0.083333333333     0          
O        O      0.735566666667     0.187250000000     0.135966666667     0          
O        O      0.666666666667     0.234600000000     0.126000000000     0          
O        O      0.750000000000     0.135250000000     0.083333333333     0          
O        O      0.750000000000     0.125000000000     0.000000000000     0          
O        O      0.833333333333     0.139650000000     0.039866666667     0          
O        O      0.751266666667     0.250000000000     0.000000000000     0          
O        O      0.750000000000     0.260500000000     0.250000000000     0          
O        O      0.764433333333     0.312750000000     0.302633333333     0          
O        O      0.833333333333     0.265400000000     0.292666666667     0          
O        O      0.750000000000     0.364750000000     0.250000000000     0          
O        O      0.750000000000     0.375000000000     0.166666666667     0          
O        O      0.666666666667     0.360350000000     0.206533333333     0          
O        O      0.735566666667     0.312750000000     0.197366666667     0          
O        O      0.666666666667     0.265400000000     0.207333333333     0          
O        O      0.750000000000     0.375000000000     0.000000000000     0          
O        O      0.833333333333     0.360350000000     0.293466666667     0          
O        O      0.764433333333     0.187250000000     0.030700000000     0          
O        O      0.833333333333     0.234600000000     0.040666666667     0          
O        O      0.750000000000     0.125000000000     0.166666666667     0          
O        O      0.666666666667     0.139650000000     0.126800000000     0          
O        O      0.917933333333     0.250000000000     0.166666666667     0          
O        O      0.916666666667     0.260500000000     0.250000000000     0          
O        O      0.931100000000     0.312750000000     0.197366666667     0          
O        O      0.916666666667     0.364750000000     0.250000000000     0          
O        O      0.916666666667     0.375000000000     0.000000000000     0          
O        O      0.915400000000     0.250000000000     0.000000000000     0          
O        O      0.916666666667     0.239500000000     0.083333333333     0          
O        O      0.902233333333     0.187250000000     0.030700000000     0          
O        O      0.916666666667     0.135250000000     0.083333333333     0          
O        O      0.916666666667     0.125000000000     0.166666666667     0          
O        O      0.931100000000     0.187250000000     0.135966666667     0          
O        O      0.916666666667     0.125000000000     0.000000000000     0          
O        O      0.902233333333     0.312750000000     0.302633333333     0          
O        O      0.916666666667     0.375000000000     0.166666666667     0          
O        O      0.915400000000     0.000000000000     0.166666666667     0          
O        O      0.916666666667     0.489500000000     0.083333333333     0          
O        O      0.902233333333     0.437250000000     0.135966666667     0          
O        O      0.833333333333     0.484600000000     0.126000000000     0          
O        O      0.916666666667     0.385250000000     0.083333333333     0          
O        O      0.666666666667     0.389650000000     0.039866666667     0          
O        O      0.917933333333     0.000000000000     0.000000000000     0          
O        O      0.916666666667     0.010500000000     0.250000000000     0          
O        O      0.931100000000     0.062750000000     0.302633333333     0          
O        O      0.666666666667     0.015400000000     0.292666666667     0          
O        O      0.916666666667     0.114750000000     0.250000000000     0          
O        O      0.833333333333     0.110350000000     0.206533333333     0          
O        O      0.902233333333     0.062750000000     0.197366666667     0          
O        O      0.833333333333     0.015400000000     0.207333333333     0          
O        O      0.666666666667     0.110350000000     0.293466666667     0          
O        O      0.931100000000     0.437250000000     0.030700000000     0          
O        O      0.666666666667     0.484600000000     0.040666666667     0          
O        O      0.833333333333     0.389650000000     0.126800000000     0          
O        O      0.751266666667     0.000000000000     0.166666666667     0          
O        O      0.750000000000     0.010500000000     0.250000000000     0          
O        O      0.764433333333     0.062750000000     0.197366666667     0          
O        O      0.750000000000     0.114750000000     0.250000000000     0          
O        O      0.748733333333     0.000000000000     0.000000000000     0          
O        O      0.750000000000     0.489500000000     0.083333333333     0          
O        O      0.735566666667     0.437250000000     0.030700000000     0          
O        O      0.750000000000     0.385250000000     0.083333333333     0          
O        O      0.764433333333     0.437250000000     0.135966666667     0          
O        O      0.735566666667     0.062750000000     0.302633333333     0          
O        O      0.748733333333     0.250000000000     0.500000000000     0          
O        O      0.750000000000     0.239500000000     0.416666666667     0          
O        O      0.735566666667     0.187250000000     0.469300000000     0          
O        O      0.666666666667     0.234600000000     0.459333333333     0          
O        O      0.750000000000     0.135250000000     0.416666666667     0          
O        O      0.750000000000     0.125000000000     0.333333333333     0          
O        O      0.833333333333     0.139650000000     0.373200000000     0          
O        O      0.751266666667     0.250000000000     0.333333333333     0          
O        O      0.750000000000     0.260500000000     0.583333333333     0          
O        O      0.764433333333     0.312750000000     0.635966666667     0          
O        O      0.833333333333     0.265400000000     0.626000000000     0          
O        O      0.750000000000     0.364750000000     0.583333333333     0          
O        O      0.750000000000     0.375000000000     0.500000000000     0          
O        O      0.666666666667     0.360350000000     0.539866666667     0          
O        O      0.735566666667     0.312750000000     0.530700000000     0          
O        O      0.666666666667     0.265400000000     0.540666666667     0          
O        O      0.750000000000     0.375000000000     0.333333333333     0          
O        O      0.833333333333     0.360350000000     0.626800000000     0          
O        O      0.764433333333     0.187250000000     0.364033333333     0          
O        O      0.833333333333     0.234600000000     0.374000000000     0          
O        O      0.750000000000     0.125000000000     0.500000000000     0          
O        O      0.666666666667     0.139650000000     0.460133333333     0          
O        O      0.917933333333     0.250000000000     0.500000000000     0          
O        O      0.916666666667     0.260500000000     0.583333333333     0          
O        O      0.931100000000     0.312750000000     0.530700000000     0          
O        O      0.916666666667     0.364750000000     0.583333333333     0          
O        O      0.916666666667     0.375000000000     0.333333333333     0          
O        O      0.915400000000     0.250000000000     0.333333333333     0          
O        O      0.916666666667     0.239500000000     0.416666666667     0          
O        O      0.902233333333     0.187250000000     0.364033333333     0          
O        O      0.916666666667     0.135250000000     0.416666666667     0          
O        O      0.916666666667     0.125000000000     0.500000000000     0          
O        O      0.931100000000     0.187250000000     0.469300000000     0          
O        O      0.916666666667     0.125000000000     0.333333333333     0          
O        O      0.902233333333     0.312750000000     0.635966666667     0          
O        O      0.916666666667     0.375000000000     0.500000000000     0          
O        O      0.915400000000     0.000000000000     0.500000000000     0          
O        O      0.916666666667     0.489500000000     0.416666666667     0          
O        O      0.902233333333     0.437250000000     0.469300000000     0          
O        O      0.833333333333     0.484600000000     0.459333333333     0          
O        O      0.916666666667     0.385250000000     0.416666666667     0          
O        O      0.666666666667     0.389650000000     0.373200000000     0          
O        O      0.917933333333     0.000000000000     0.333333333333     0          
O        O      0.916666666667     0.010500000000     0.583333333333     0          
O        O      0.931100000000     0.062750000000     0.635966666667     0          
O        O      0.666666666667     0.015400000000     0.626000000000     0          
O        O      0.916666666667     0.114750000000     0.583333333333     0          
O        O      0.833333333333     0.110350000000     0.539866666667     0          
O        O      0.902233333333     0.062750000000     0.530700000000     0          
O        O      0.833333333333     0.015400000000     0.540666666667     0          
O        O      0.666666666667     0.110350000000     0.626800000000     0          
O        O      0.931100000000     0.437250000000     0.364033333333     0          
O        O      0.666666666667     0.484600000000     0.374000000000     0          
O        O      0.833333333333     0.389650000000     0.460133333333     0          
O        O      0.751266666667     0.000000000000     0.500000000000     0          
O        O      0.750000000000     0.010500000000     0.583333333333     0          
O        O      0.764433333333     0.062750000000     0.530700000000     0          
O        O      0.750000000000     0.114750000000     0.583333333333     0          
O        O      0.748733333333     0.000000000000     0.333333333333     0          
O        O      0.750000000000     0.489500000000     0.416666666667     0          
O        O      0.735566666667     0.437250000000     0.364033333333     0          
O        O      0.750000000000     0.385250000000     0.416666666667     0          
O        O      0.764433333333     0.437250000000     0.469300000000     0          
O        O      0.735566666667     0.062750000000     0.635966666667     0          
O        O      0.748733333333     0.250000000000     0.833333333333     0          
O        O      0.750000000000     0.239500000000     0.750000000000     0          
O        O      0.735566666667     0.187250000000     0.802633333333     0          
O        O      0.666666666667     0.234600000000     0.792666666667     0          
O        O      0.750000000000     0.135250000000     0.750000000000     0          
O        O      0.750000000000     0.125000000000     0.666666666667     0          
O        O      0.833333333333     0.139650000000     0.706533333333     0          
O        O      0.751266666667     0.250000000000     0.666666666667     0          
O        O      0.750000000000     0.260500000000     0.916666666667     0          
O        O      0.764433333333     0.312750000000     0.969300000000     0          
O        O      0.833333333333     0.265400000000     0.959333333333     0          
O        O      0.750000000000     0.364750000000     0.916666666667     0          
O        O      0.750000000000     0.375000000000     0.833333333333     0          
O        O      0.666666666667     0.360350000000     0.873200000000     0          
O        O      0.735566666667     0.312750000000     0.864033333333     0          
O        O      0.666666666667     0.265400000000     0.874000000000     0          
O        O      0.750000000000     0.375000000000     0.666666666667     0          
O        O      0.833333333333     0.360350000000     0.960133333333     0          
O        O      0.764433333333     0.187250000000     0.697366666667     0          
O        O      0.833333333333     0.234600000000     0.707333333333     0          
O        O      0.750000000000     0.125000000000     0.833333333333     0          
O        O      0.666666666667     0.139650000000     0.793466666667     0          
O        O      0.917933333333     0.250000000000     0.833333333333     0          
O        O      0.916666666667     0.260500000000     0.916666666667     0          
O        O      0.931100000000     0.312750000000     0.864033333333     0          
O        O      0.916666666667     0.364750000000     0.916666666667     0          
O        O      0.916666666667     0.375000000000     0.666666666667     0          
O        O      0.915400000000     0.250000000000     0.666666666667     0          
O        O      0.916666666667     0.239500000000     0.750000000000     0          
O        O      0.902233333333     0.187250000000     0.697366666667     0          
O        O      0.916666666667     0.135250000000     0.750000000000     0          
O        O      0.916666666667     0.125000000000     0.833333333333     0          
O        O      0.931100000000     0.187250000000     0.802633333333     0          
O        O      0.916666666667     0.125000000000     0.666666666667     0          
O        O      0.902233333333     0.312750000000     0.969300000000     0          
O        O      0.916666666667     0.375000000000     0.833333333333     0          
O        O      0.915400000000     0.000000000000     0.833333333333     0          
O        O      0.916666666667     0.489500000000     0.750000000000     0          
O        O      0.902233333333     0.437250000000     0.802633333333     0          
O        O      0.833333333333     0.484600000000     0.792666666667     0          
O        O      0.916666666667     0.385250000000     0.750000000000     0          
O        O      0.666666666667     0.389650000000     0.706533333333     0          
O        O      0.917933333333     0.000000000000     0.666666666667     0          
O        O      0.916666666667     0.010500000000     0.916666666667     0          
O        O      0.931100000000     0.062750000000     0.969300000000     0          
O        O      0.666666666667     0.015400000000     0.959333333333     0          
O        O      0.916666666667     0.114750000000     0.916666666667     0          
O        O      0.833333333333     0.110350000000     0.873200000000     0          
O        O      0.902233333333     0.062750000000     0.864033333333     0          
O        O      0.833333333333     0.015400000000     0.874000000000     0          
O        O      0.666666666667     0.110350000000     0.960133333333     0          
O        O      0.931100000000     0.437250000000     0.697366666667     0          
O        O      0.666666666667     0.484600000000     0.707333333333     0          
O        O      0.833333333333     0.389650000000     0.793466666667     0          
O        O      0.751266666667     0.000000000000     0.833333333333     0          
O        O      0.750000000000     0.010500000000     0.916666666667     0          
O        O      0.764433333333     0.062750000000     0.864033333333     0          
O        O      0.750000000000     0.114750000000     0.916666666667     0          
O        O      0.748733333333     0.000000000000     0.666666666667     0          
O        O      0.750000000000     0.489500000000     0.750000000000     0          
O        O      0.735566666667     0.437250000000     0.697366666667     0          
O        O      0.750000000000     0.385250000000     0.750000000000     0          
O        O      0.764433333333     0.437250000000     0.802633333333     0          
O        O      0.735566666667     0.062750000000     0.969300000000     0          
O        O      0.748733333333     0.750000000000     0.166666666667     0          
O        O      0.750000000000     0.739500000000     0.083333333333     0          
O        O      0.735566666667     0.687250000000     0.135966666667     0          
O        O      0.666666666667     0.734600000000     0.126000000000     0          
O        O      0.750000000000     0.635250000000     0.083333333333     0          
O        O      0.750000000000     0.625000000000     0.000000000000     0          
O        O      0.833333333333     0.639650000000     0.039866666667     0          
O        O      0.751266666667     0.750000000000     0.000000000000     0          
O        O      0.750000000000     0.760500000000     0.250000000000     0          
O        O      0.764433333333     0.812750000000     0.302633333333     0          
O        O      0.833333333333     0.765400000000     0.292666666667     0          
O        O      0.750000000000     0.864750000000     0.250000000000     0          
O        O      0.750000000000     0.875000000000     0.166666666667     0          
O        O      0.666666666667     0.860350000000     0.206533333333     0          
O        O      0.735566666667     0.812750000000     0.197366666667     0          
O        O      0.666666666667     0.765400000000     0.207333333333     0          
O        O      0.750000000000     0.875000000000     0.000000000000     0          
O        O      0.833333333333     0.860350000000     0.293466666667     0          
O        O      0.764433333333     0.687250000000     0.030700000000     0          
O        O      0.833333333333     0.734600000000     0.040666666667     0          
O        O      0.750000000000     0.625000000000     0.166666666667     0          
O        O      0.666666666667     0.639650000000     0.126800000000     0          
O        O      0.917933333333     0.750000000000     0.166666666667     0          
O        O      0.916666666667     0.760500000000     0.250000000000     0          
O        O      0.931100000000     0.812750000000     0.197366666667     0          
O        O      0.916666666667     0.864750000000     0.250000000000     0          
O        O      0.916666666667     0.875000000000     0.000000000000     0          
O        O      0.915400000000     0.750000000000     0.000000000000     0          
O        O      0.916666666667     0.739500000000     0.083333333333     0          
O        O      0.902233333333     0.687250000000     0.030700000000     0          
O        O      0.916666666667     0.635250000000     0.083333333333     0          
O        O      0.916666666667     0.625000000000     0.166666666667     0          
O        O      0.931100000000     0.687250000000     0.135966666667     0          
O        O      0.916666666667     0.625000000000     0.000000000000     0          
O        O      0.902233333333     0.812750000000     0.302633333333     0          
O        O      0.916666666667     0.875000000000     0.166666666667     0          
O        O      0.915400000000     0.500000000000     0.166666666667     0          
O        O      0.916666666667     0.989500000000     0.083333333333     0          
O        O      0.902233333333     0.937250000000     0.135966666667     0          
O        O      0.833333333333     0.984600000000     0.126000000000     0          
O        O      0.916666666667     0.885250000000     0.083333333333     0          
O        O      0.666666666667     0.889650000000     0.039866666667     0          
O        O      0.917933333333     0.500000000000     0.000000000000     0          
O        O      0.916666666667     0.510500000000     0.250000000000     0          
O        O      0.931100000000     0.562750000000     0.302633333333     0          
O        O      0.666666666667     0.515400000000     0.292666666667     0          
O        O      0.916666666667     0.614750000000     0.250000000000     0          
O        O      0.833333333333     0.610350000000     0.206533333333     0          
O        O      0.902233333333     0.562750000000     0.197366666667     0          
O        O      0.833333333333     0.515400000000     0.207333333333     0          
O        O      0.666666666667     0.610350000000     0.293466666667     0          
O        O      0.931100000000     0.937250000000     0.030700000000     0          
O        O      0.666666666667     0.984600000000     0.040666666667     0          
O        O      0.833333333333     0.889650000000     0.126800000000     0          
O        O      0.751266666667     0.500000000000     0.166666666667     0          
O        O      0.750000000000     0.510500000000     0.250000000000     0          
O        O      0.764433333333     0.562750000000     0.197366666667     0          
O        O      0.750000000000     0.614750000000     0.250000000000     0          
O        O      0.748733333333     0.500000000000     0.000000000000     0          
O        O      0.750000000000     0.989500000000     0.083333333333     0          
O        O      0.735566666667     0.937250000000     0.030700000000     0          
O        O      0.750000000000     0.885250000000     0.083333333333     0          
O        O      0.764433333333     0.937250000000     0.135966666667     0          
O        O      0.735566666667     0.562750000000     0.302633333333     0          
O        O      0.748733333333     0.750000000000     0.500000000000     0          
O        O      0.750000000000     0.739500000000     0.416666666667     0          
O        O      0.735566666667     0.687250000000     0.469300000000     0          
O        O      0.666666666667     0.734600000000     0.459333333333     0          
O        O      0.750000000000     0.635250000000     0.416666666667     0          
O        O      0.750000000000     0.625000000000     0.333333333333     0          
O        O      0.833333333333     0.639650000000     0.373200000000     0          
O        O      0.751266666667     0.750000000000     0.333333333333     0          
O        O      0.750000000000     0.760500000000     0.583333333333     0          
O        O      0.764433333333     0.812750000000     0.635966666667     0          
O        O      0.833333333333     0.765400000000     0.626000000000     0          
O        O      0.750000000000     0.864750000000     0.583333333333     0          
O        O      0.750000000000     0.875000000000     0.500000000000     0          
O        O      0.666666666667     0.860350000000     0.539866666667     0          
O        O      0.735566666667     0.812750000000     0.530700000000     0          
O        O      0.666666666667     0.765400000000     0.540666666667     0          
O        O      0.750000000000     0.875000000000     0.333333333333     0          
O        O      0.833333333333     0.860350000000     0.626800000000     0          
O        O      0.764433333333     0.687250000000     0.364033333333     0          
O        O      0.833333333333     0.734600000000     0.374000000000     0          
O        O      0.750000000000     0.625000000000     0.500000000000     0          
O        O      0.666666666667     0.639650000000     0.460133333333     0          
O        O      0.917933333333     0.750000000000     0.500000000000     0          
O        O      0.916666666667     0.760500000000     0.583333333333     0          
O        O      0.931100000000     0.812750000000     0.530700000000     0          
O        O      0.916666666667     0.864750000000     0.583333333333     0          
O        O      0.916666666667     0.875000000000     0.333333333333     0          
O        O      0.915400000000     0.750000000000     0.333333333333     0          
O        O      0.916666666667     0.739500000000     0.416666666667     0          
O        O      0.902233333333     0.687250000000     0.364033333333     0          
O        O      0.916666666667     0.635250000000     0.416666666667     0          
O        O      0.916666666667     0.625000000000     0.500000000000     0          
O        O      0.931100000000     0.687250000000     0.469300000000     0          
O        O      0.916666666667     0.625000000000     0.333333333333     0          
O        O      0.902233333333     0.812750000000     0.635966666667     0          
O        O      0.916666666667     0.875000000000     0.500000000000     0          
O        O      0.915400000000     0.500000000000     0.500000000000     0          
O        O      0.916666666667     0.989500000000     0.416666666667     0          
O        O      0.902233333333     0.937250000000     0.469300000000     0          
O        O      0.833333333333     0.984600000000     0.459333333333     0          
O        O      0.916666666667     0.885250000000     0.416666666667     0          
O        O      0.666666666667     0.889650000000     0.373200000000     0          
O        O      0.917933333333     0.500000000000     0.333333333333     0          
O        O      0.916666666667     0.510500000000     0.583333333333     0          
O        O      0.931100000000     0.562750000000     0.635966666667     0          
O        O      0.666666666667     0.515400000000     0.626000000000     0          
O        O      0.916666666667     0.614750000000     0.583333333333     0          
O        O      0.833333333333     0.610350000000     0.539866666667     0          
O        O      0.902233333333     0.562750000000     0.530700000000     0          
O        O      0.833333333333     0.515400000000     0.540666666667     0          
O        O      0.666666666667     0.610350000000     0.626800000000     0          
O        O      0.931100000000     0.937250000000     0.364033333333     0          
O        O      0.666666666667     0.984600000000     0.374000000000     0          
O        O      0.833333333333     0.889650000000     0.460133333333     0          
O        O      0.751266666667     0.500000000000     0.500000000000     0          
O        O      0.750000000000     0.510500000000     0.583333333333     0          
O        O      0.764433333333     0.562750000000     0.530700000000     0          
O        O      0.750000000000     0.614750000000     0.583333333333     0          
O        O      0.748733333333     0.500000000000     0.333333333333     0          
O        O      0.750000000000     0.989500000000     0.416666666667     0          
O        O      0.735566666667     0.937250000000     0.364033333333     0          
O        O      0.750000000000     0.885250000000     0.416666666667     0          
O        O      0.764433333333     0.937250000000     0.469300000000     0          
O        O      0.735566666667     0.562750000000     0.635966666667     0          
O        O      0.748733333333     0.750000000000     0.833333333333     0          
O        O      0.750000000000     0.739500000000     0.750000000000     0          
O        O      0.735566666667     0.687250000000     0.802633333333     0          
O        O      0.666666666667     0.734600000000     0.792666666667     0          
O        O      0.750000000000     0.635250000000     0.750000000000     0          
O        O      0.750000000000     0.625000000000     0.666666666667     0          
O        O      0.833333333333     0.639650000000     0.706533333333     0          
O        O      0.751266666667     0.750000000000     0.666666666667     0          
O        O      0.750000000000     0.760500000000     0.916666666667     0          
O        O      0.764433333333     0.812750000000     0.969300000000     0          
O        O      0.833333333333     0.765400000000     0.959333333333     0          
O        O      0.750000000000     0.864750000000     0.916666666667     0          
O        O      0.750000000000     0.875000000000     0.833333333333     0          
O        O      0.666666666667     0.860350000000     0.873200000000     0          
O        O      0.735566666667     0.812750000000     0.864033333333     0          
O        O      0.666666666667     0.765400000000     0.874000000000     0          
O        O      0.750000000000     0.875000000000     0.666666666667     0          
O        O      0.833333333333     0.860350000000     0.960133333333     0          
O        O      0.764433333333     0.687250000000     0.697366666667     0          
O        O      0.833333333333     0.734600000000     0.707333333333     0          
O        O      0.750000000000     0.625000000000     0.833333333333     0          
O        O      0.666666666667     0.639650000000     0.793466666667     0          
O        O      0.917933333333     0.750000000000     0.833333333333     0          
O        O      0.916666666667     0.760500000000     0.916666666667     0          
O        O      0.931100000000     0.812750000000     0.864033333333     0          
O        O      0.916666666667     0.864750000000     0.916666666667     0          
O        O      0.916666666667     0.875000000000     0.666666666667     0          
O        O      0.915400000000     0.750000000000     0.666666666667     0          
O        O      0.916666666667     0.739500000000     0.750000000000     0          
O        O      0.902233333333     0.687250000000     0.697366666667     0          
O        O      0.916666666667     0.635250000000     0.750000000000     0          
O        O      0.916666666667     0.625000000000     0.833333333333     0          
O        O      0.931100000000     0.687250000000     0.802633333333     0          
O        O      0.916666666667     0.625000000000     0.666666666667     0          
O        O      0.902233333333     0.812750000000     0.969300000000     0          
O        O      0.916666666667     0.875000000000     0.833333333333     0          
O        O      0.915400000000     0.500000000000     0.833333333333     0          
O        O      0.916666666667     0.989500000000     0.750000000000     0          
O        O      0.902233333333     0.937250000000     0.802633333333     0          
O        O      0.833333333333     0.984600000000     0.792666666667     0          
O        O      0.916666666667     0.885250000000     0.750000000000     0          
O        O      0.666666666667     0.889650000000     0.706533333333     0          
O        O      0.917933333333     0.500000000000     0.666666666667     0          
O        O      0.916666666667     0.510500000000     0.916666666667     0          
O        O      0.931100000000     0.562750000000     0.969300000000     0          
O        O      0.666666666667     0.515400000000     0.959333333333     0          
O        O      0.916666666667     0.614750000000     0.916666666667     0          
O        O      0.833333333333     0.610350000000     0.873200000000     0          
O        O      0.902233333333     0.562750000000     0.864033333333     0          
O        O      0.833333333333     0.515400000000     0.874000000000     0          
O        O      0.666666666667     0.610350000000     0.960133333333     0          
O        O      0.931100000000     0.937250000000     0.697366666667     0          
O        O      0.666666666667     0.984600000000     0.707333333333     0          
O        O      0.833333333333     0.889650000000     0.793466666667     0          
O        O      0.751266666667     0.500000000000     0.833333333333     0          
O        O      0.750000000000     0.510500000000     0.916666666667     0          
O        O      0.764433333333     0.562750000000     0.864033333333     0          
O        O      0.750000000000     0.614750000000     0.916666666667     0          
O        O      0.748733333333     0.500000000000     0.666666666667     0          
O        O      0.750000000000     0.989500000000     0.750000000000     0          
O        O      0.735566666667     0.937250000000     0.697366666667     0          
O        O      0.750000000000     0.885250000000     0.750000000000     0          
O        O      0.764433333333     0.937250000000     0.802633333333     0          
O        O      0.735566666667     0.562750000000     0.969300000000     0          


