data_zeolite

_audit_creation_method RASPA-1.0
_audit_creation_date 2021-6-6
_audit_author_name ''

_cell_length_a    13.795
_cell_length_b    13.795
_cell_length_c    40.75
_cell_angle_alpha 90
_cell_angle_beta  90
_cell_angle_gamma 120
_cell_volume      60442.7

_symmetry_cell_setting          trigonal
_symmetry_space_group_name_Hall 'P 1'
_symmetry_space_group_name_H-M  'P 1'
_symmetry_Int_Tables_number     1

_symmetry_equiv_pos_as_xyz 'x,y,z'

loop_
_atom_site_label
_atom_site_type_symbol
_atom_site_fract_x
_atom_site_fract_y
_atom_site_fract_z
_atom_site_charge
T        Si     0.242700000000     0.017966666667     0.069800000000     0          
T        Si     0.043633333333     0.087266666667     0.107500000000     0          
T        Si     0.066633333333     0.133300000000     0.171800000000     0          
T        Si     0.039566666667     0.079133333333     0.230900000000     0          
T        Si     0.075200000000     0.000000000000     0.000000000000     0          
T        Si     0.000000000000     0.000000000000     0.195600000000     0          
T        Si     0.000000000000     0.000000000000     0.116600000000     0          
T        Si     0.315366666667     0.224733333333     0.069800000000     0          
T        Si     0.246066666667     0.289700000000     0.107500000000     0          
T        Si     0.200033333333     0.266666666667     0.171800000000     0          
T        Si     0.254200000000     0.293766666667     0.230900000000     0          
T        Si     0.000000000000     0.075200000000     0.000000000000     0          
T        Si     0.108600000000     0.090633333333     0.069800000000     0          
T        Si     0.043633333333     0.289700000000     0.107500000000     0          
T        Si     0.066666666667     0.266700000000     0.171800000000     0          
T        Si     0.039566666667     0.293766666667     0.230900000000     0          
T        Si     0.258133333333     0.258133333333     0.000000000000     0          
T        Si     0.017966666667     0.242700000000     0.930200000000     0          
T        Si     0.087266666667     0.043633333333     0.892500000000     0          
T        Si     0.133300000000     0.066633333333     0.828200000000     0          
T        Si     0.079133333333     0.039566666667     0.769100000000     0          
T        Si     0.000000000000     0.000000000000     0.804400000000     0          
T        Si     0.000000000000     0.000000000000     0.883400000000     0          
T        Si     0.090633333333     0.108600000000     0.930200000000     0          
T        Si     0.289700000000     0.043633333333     0.892500000000     0          
T        Si     0.266700000000     0.066666666667     0.828200000000     0          
T        Si     0.293766666667     0.039566666667     0.769100000000     0          
T        Si     0.224733333333     0.315366666667     0.930200000000     0          
T        Si     0.289700000000     0.246066666667     0.892500000000     0          
T        Si     0.266666666667     0.200033333333     0.828200000000     0          
T        Si     0.293766666667     0.254200000000     0.769100000000     0          
T        Si     0.090633333333     0.315366666667     0.930200000000     0          
T        Si     0.258133333333     0.000000000000     0.000000000000     0          
T        Si     0.017966666667     0.108600000000     0.930200000000     0          
T        Si     0.000000000000     0.258133333333     0.000000000000     0          
T        Si     0.224733333333     0.242700000000     0.930200000000     0          
T        Si     0.075200000000     0.075200000000     0.000000000000     0          
T        Si     0.315366666667     0.090633333333     0.069800000000     0          
T        Si     0.242700000000     0.224733333333     0.069800000000     0          
T        Si     0.108600000000     0.017966666667     0.069800000000     0          
T        Si     0.131588888889     0.129077777778     0.403133333333     0          
T        Si     0.265855555556     0.198377777778     0.440833333333     0          
T        Si     0.288855555556     0.244411111111     0.505133333333     0          
T        Si     0.261788888889     0.190244444444     0.564233333333     0          
T        Si     0.297422222222     0.111111111111     0.333333333333     0          
T        Si     0.222222222222     0.111111111111     0.528933333333     0          
T        Si     0.222222222222     0.111111111111     0.449933333333     0          
T        Si     0.204255555556     0.002511111111     0.403133333333     0          
T        Si     0.134955555556     0.067477777778     0.440833333333     0          
T        Si     0.088922222222     0.044444444444     0.505133333333     0          
T        Si     0.143088888889     0.071544444444     0.564233333333     0          
T        Si     0.222222222222     0.186311111111     0.333333333333     0          
T        Si     0.330822222222     0.201744444444     0.403133333333     0          
T        Si     0.265855555556     0.067477777778     0.440833333333     0          
T        Si     0.288888888889     0.044477777778     0.505133333333     0          
T        Si     0.261788888889     0.071544444444     0.564233333333     0          
T        Si     0.147022222222     0.035911111111     0.333333333333     0          
T        Si     0.240188888889     0.020477777778     0.263533333333     0          
T        Si     0.309488888889     0.154744444444     0.225833333333     0          
T        Si     0.022188888889     0.177744444444     0.161533333333     0          
T        Si     0.301355555556     0.150677777778     0.102433333333     0          
T        Si     0.222222222222     0.111111111111     0.137733333333     0          
T        Si     0.222222222222     0.111111111111     0.216733333333     0          
T        Si     0.312855555556     0.219711111111     0.263533333333     0          
T        Si     0.178588888889     0.154744444444     0.225833333333     0          
T        Si     0.155588888889     0.177777777778     0.161533333333     0          
T        Si     0.182655555556     0.150677777778     0.102433333333     0          
T        Si     0.113622222222     0.093144444444     0.263533333333     0          
T        Si     0.178588888889     0.023844444444     0.225833333333     0          
T        Si     0.155555555556     0.311144444444     0.161533333333     0          
T        Si     0.182655555556     0.031977777778     0.102433333333     0          
T        Si     0.312855555556     0.093144444444     0.263533333333     0          
T        Si     0.147022222222     0.111111111111     0.333333333333     0          
T        Si     0.240188888889     0.219711111111     0.263533333333     0          
T        Si     0.222222222222     0.035911111111     0.333333333333     0          
T        Si     0.113622222222     0.020477777778     0.263533333333     0          
T        Si     0.297422222222     0.186311111111     0.333333333333     0          
T        Si     0.204255555556     0.201744444444     0.403133333333     0          
T        Si     0.131588888889     0.002511111111     0.403133333333     0          
T        Si     0.330822222222     0.129077777778     0.403133333333     0          
T        Si     0.020477777778     0.240188888889     0.736466666667     0          
T        Si     0.154744444444     0.309488888889     0.774166666667     0          
T        Si     0.177744444444     0.022188888889     0.838466666667     0          
T        Si     0.150677777778     0.301355555556     0.897566666667     0          
T        Si     0.186311111111     0.222222222222     0.666666666667     0          
T        Si     0.111111111111     0.222222222222     0.862266666667     0          
T        Si     0.111111111111     0.222222222222     0.783266666667     0          
T        Si     0.093144444444     0.113622222222     0.736466666667     0          
T        Si     0.023844444444     0.178588888889     0.774166666667     0          
T        Si     0.311144444444     0.155555555556     0.838466666667     0          
T        Si     0.031977777778     0.182655555556     0.897566666667     0          
T        Si     0.111111111111     0.297422222222     0.666666666667     0          
T        Si     0.219711111111     0.312855555556     0.736466666667     0          
T        Si     0.154744444444     0.178588888889     0.774166666667     0          
T        Si     0.177777777778     0.155588888889     0.838466666667     0          
T        Si     0.150677777778     0.182655555556     0.897566666667     0          
T        Si     0.035911111111     0.147022222222     0.666666666667     0          
T        Si     0.129077777778     0.131588888889     0.596866666667     0          
T        Si     0.198377777778     0.265855555556     0.559166666667     0          
T        Si     0.244411111111     0.288855555556     0.494866666667     0          
T        Si     0.190244444444     0.261788888889     0.435766666667     0          
T        Si     0.111111111111     0.222222222222     0.471066666667     0          
T        Si     0.111111111111     0.222222222222     0.550066666667     0          
T        Si     0.201744444444     0.330822222222     0.596866666667     0          
T        Si     0.067477777778     0.265855555556     0.559166666667     0          
T        Si     0.044477777778     0.288888888889     0.494866666667     0          
T        Si     0.071544444444     0.261788888889     0.435766666667     0          
T        Si     0.002511111111     0.204255555556     0.596866666667     0          
T        Si     0.067477777778     0.134955555556     0.559166666667     0          
T        Si     0.044444444444     0.088922222222     0.494866666667     0          
T        Si     0.071544444444     0.143088888889     0.435766666667     0          
T        Si     0.201744444444     0.204255555556     0.596866666667     0          
T        Si     0.035911111111     0.222222222222     0.666666666667     0          
T        Si     0.129077777778     0.330822222222     0.596866666667     0          
T        Si     0.111111111111     0.147022222222     0.666666666667     0          
T        Si     0.002511111111     0.131588888889     0.596866666667     0          
T        Si     0.186311111111     0.297422222222     0.666666666667     0          
T        Si     0.093144444444     0.312855555556     0.736466666667     0          
T        Si     0.020477777778     0.113622222222     0.736466666667     0          
T        Si     0.219711111111     0.240188888889     0.736466666667     0          
T        Si     0.242700000000     0.351300000000     0.069800000000     0          
T        Si     0.043633333333     0.420600000000     0.107500000000     0          
T        Si     0.066633333333     0.466633333333     0.171800000000     0          
T        Si     0.039566666667     0.412466666667     0.230900000000     0          
T        Si     0.075200000000     0.333333333333     0.000000000000     0          
T        Si     0.000000000000     0.333333333333     0.195600000000     0          
T        Si     0.000000000000     0.333333333333     0.116600000000     0          
T        Si     0.315366666667     0.558066666667     0.069800000000     0          
T        Si     0.246066666667     0.623033333333     0.107500000000     0          
T        Si     0.200033333333     0.600000000000     0.171800000000     0          
T        Si     0.254200000000     0.627100000000     0.230900000000     0          
T        Si     0.000000000000     0.408533333333     0.000000000000     0          
T        Si     0.108600000000     0.423966666667     0.069800000000     0          
T        Si     0.043633333333     0.623033333333     0.107500000000     0          
T        Si     0.066666666667     0.600033333333     0.171800000000     0          
T        Si     0.039566666667     0.627100000000     0.230900000000     0          
T        Si     0.258133333333     0.591466666667     0.000000000000     0          
T        Si     0.017966666667     0.576033333333     0.930200000000     0          
T        Si     0.087266666667     0.376966666667     0.892500000000     0          
T        Si     0.133300000000     0.399966666667     0.828200000000     0          
T        Si     0.079133333333     0.372900000000     0.769100000000     0          
T        Si     0.000000000000     0.333333333333     0.804400000000     0          
T        Si     0.000000000000     0.333333333333     0.883400000000     0          
T        Si     0.090633333333     0.441933333333     0.930200000000     0          
T        Si     0.289700000000     0.376966666667     0.892500000000     0          
T        Si     0.266700000000     0.400000000000     0.828200000000     0          
T        Si     0.293766666667     0.372900000000     0.769100000000     0          
T        Si     0.224733333333     0.648700000000     0.930200000000     0          
T        Si     0.289700000000     0.579400000000     0.892500000000     0          
T        Si     0.266666666667     0.533366666667     0.828200000000     0          
T        Si     0.293766666667     0.587533333333     0.769100000000     0          
T        Si     0.090633333333     0.648700000000     0.930200000000     0          
T        Si     0.258133333333     0.333333333333     0.000000000000     0          
T        Si     0.017966666667     0.441933333333     0.930200000000     0          
T        Si     0.000000000000     0.591466666667     0.000000000000     0          
T        Si     0.224733333333     0.576033333333     0.930200000000     0          
T        Si     0.075200000000     0.408533333333     0.000000000000     0          
T        Si     0.315366666667     0.423966666667     0.069800000000     0          
T        Si     0.242700000000     0.558066666667     0.069800000000     0          
T        Si     0.108600000000     0.351300000000     0.069800000000     0          
T        Si     0.131588888889     0.462411111111     0.403133333333     0          
T        Si     0.265855555556     0.531711111111     0.440833333333     0          
T        Si     0.288855555556     0.577744444444     0.505133333333     0          
T        Si     0.261788888889     0.523577777778     0.564233333333     0          
T        Si     0.297422222222     0.444444444444     0.333333333333     0          
T        Si     0.222222222222     0.444444444444     0.528933333333     0          
T        Si     0.222222222222     0.444444444444     0.449933333333     0          
T        Si     0.204255555556     0.335844444444     0.403133333333     0          
T        Si     0.134955555556     0.400811111111     0.440833333333     0          
T        Si     0.088922222222     0.377777777778     0.505133333333     0          
T        Si     0.143088888889     0.404877777778     0.564233333333     0          
T        Si     0.222222222222     0.519644444444     0.333333333333     0          
T        Si     0.330822222222     0.535077777778     0.403133333333     0          
T        Si     0.265855555556     0.400811111111     0.440833333333     0          
T        Si     0.288888888889     0.377811111111     0.505133333333     0          
T        Si     0.261788888889     0.404877777778     0.564233333333     0          
T        Si     0.147022222222     0.369244444444     0.333333333333     0          
T        Si     0.240188888889     0.353811111111     0.263533333333     0          
T        Si     0.309488888889     0.488077777778     0.225833333333     0          
T        Si     0.022188888889     0.511077777778     0.161533333333     0          
T        Si     0.301355555556     0.484011111111     0.102433333333     0          
T        Si     0.222222222222     0.444444444444     0.137733333333     0          
T        Si     0.222222222222     0.444444444444     0.216733333333     0          
T        Si     0.312855555556     0.553044444444     0.263533333333     0          
T        Si     0.178588888889     0.488077777778     0.225833333333     0          
T        Si     0.155588888889     0.511111111111     0.161533333333     0          
T        Si     0.182655555556     0.484011111111     0.102433333333     0          
T        Si     0.113622222222     0.426477777778     0.263533333333     0          
T        Si     0.178588888889     0.357177777778     0.225833333333     0          
T        Si     0.155555555556     0.644477777778     0.161533333333     0          
T        Si     0.182655555556     0.365311111111     0.102433333333     0          
T        Si     0.312855555556     0.426477777778     0.263533333333     0          
T        Si     0.147022222222     0.444444444444     0.333333333333     0          
T        Si     0.240188888889     0.553044444444     0.263533333333     0          
T        Si     0.222222222222     0.369244444444     0.333333333333     0          
T        Si     0.113622222222     0.353811111111     0.263533333333     0          
T        Si     0.297422222222     0.519644444444     0.333333333333     0          
T        Si     0.204255555556     0.535077777778     0.403133333333     0          
T        Si     0.131588888889     0.335844444444     0.403133333333     0          
T        Si     0.330822222222     0.462411111111     0.403133333333     0          
T        Si     0.020477777778     0.573522222222     0.736466666667     0          
T        Si     0.154744444444     0.642822222222     0.774166666667     0          
T        Si     0.177744444444     0.355522222222     0.838466666667     0          
T        Si     0.150677777778     0.634688888889     0.897566666667     0          
T        Si     0.186311111111     0.555555555556     0.666666666667     0          
T        Si     0.111111111111     0.555555555556     0.862266666667     0          
T        Si     0.111111111111     0.555555555556     0.783266666667     0          
T        Si     0.093144444444     0.446955555556     0.736466666667     0          
T        Si     0.023844444444     0.511922222222     0.774166666667     0          
T        Si     0.311144444444     0.488888888889     0.838466666667     0          
T        Si     0.031977777778     0.515988888889     0.897566666667     0          
T        Si     0.111111111111     0.630755555556     0.666666666667     0          
T        Si     0.219711111111     0.646188888889     0.736466666667     0          
T        Si     0.154744444444     0.511922222222     0.774166666667     0          
T        Si     0.177777777778     0.488922222222     0.838466666667     0          
T        Si     0.150677777778     0.515988888889     0.897566666667     0          
T        Si     0.035911111111     0.480355555556     0.666666666667     0          
T        Si     0.129077777778     0.464922222222     0.596866666667     0          
T        Si     0.198377777778     0.599188888889     0.559166666667     0          
T        Si     0.244411111111     0.622188888889     0.494866666667     0          
T        Si     0.190244444444     0.595122222222     0.435766666667     0          
T        Si     0.111111111111     0.555555555556     0.471066666667     0          
T        Si     0.111111111111     0.555555555556     0.550066666667     0          
T        Si     0.201744444444     0.664155555556     0.596866666667     0          
T        Si     0.067477777778     0.599188888889     0.559166666667     0          
T        Si     0.044477777778     0.622222222222     0.494866666667     0          
T        Si     0.071544444444     0.595122222222     0.435766666667     0          
T        Si     0.002511111111     0.537588888889     0.596866666667     0          
T        Si     0.067477777778     0.468288888889     0.559166666667     0          
T        Si     0.044444444444     0.422255555556     0.494866666667     0          
T        Si     0.071544444444     0.476422222222     0.435766666667     0          
T        Si     0.201744444444     0.537588888889     0.596866666667     0          
T        Si     0.035911111111     0.555555555556     0.666666666667     0          
T        Si     0.129077777778     0.664155555556     0.596866666667     0          
T        Si     0.111111111111     0.480355555556     0.666666666667     0          
T        Si     0.002511111111     0.464922222222     0.596866666667     0          
T        Si     0.186311111111     0.630755555556     0.666666666667     0          
T        Si     0.093144444444     0.646188888889     0.736466666667     0          
T        Si     0.020477777778     0.446955555556     0.736466666667     0          
T        Si     0.219711111111     0.573522222222     0.736466666667     0          
T        Si     0.242700000000     0.684633333333     0.069800000000     0          
T        Si     0.043633333333     0.753933333333     0.107500000000     0          
T        Si     0.066633333333     0.799966666667     0.171800000000     0          
T        Si     0.039566666667     0.745800000000     0.230900000000     0          
T        Si     0.075200000000     0.666666666667     0.000000000000     0          
T        Si     0.000000000000     0.666666666667     0.195600000000     0          
T        Si     0.000000000000     0.666666666667     0.116600000000     0          
T        Si     0.315366666667     0.891400000000     0.069800000000     0          
T        Si     0.246066666667     0.956366666667     0.107500000000     0          
T        Si     0.200033333333     0.933333333333     0.171800000000     0          
T        Si     0.254200000000     0.960433333333     0.230900000000     0          
T        Si     0.000000000000     0.741866666667     0.000000000000     0          
T        Si     0.108600000000     0.757300000000     0.069800000000     0          
T        Si     0.043633333333     0.956366666667     0.107500000000     0          
T        Si     0.066666666667     0.933366666667     0.171800000000     0          
T        Si     0.039566666667     0.960433333333     0.230900000000     0          
T        Si     0.258133333333     0.924800000000     0.000000000000     0          
T        Si     0.017966666667     0.909366666667     0.930200000000     0          
T        Si     0.087266666667     0.710300000000     0.892500000000     0          
T        Si     0.133300000000     0.733300000000     0.828200000000     0          
T        Si     0.079133333333     0.706233333333     0.769100000000     0          
T        Si     0.000000000000     0.666666666667     0.804400000000     0          
T        Si     0.000000000000     0.666666666667     0.883400000000     0          
T        Si     0.090633333333     0.775266666667     0.930200000000     0          
T        Si     0.289700000000     0.710300000000     0.892500000000     0          
T        Si     0.266700000000     0.733333333333     0.828200000000     0          
T        Si     0.293766666667     0.706233333333     0.769100000000     0          
T        Si     0.224733333333     0.982033333333     0.930200000000     0          
T        Si     0.289700000000     0.912733333333     0.892500000000     0          
T        Si     0.266666666667     0.866700000000     0.828200000000     0          
T        Si     0.293766666667     0.920866666667     0.769100000000     0          
T        Si     0.090633333333     0.982033333333     0.930200000000     0          
T        Si     0.258133333333     0.666666666667     0.000000000000     0          
T        Si     0.017966666667     0.775266666667     0.930200000000     0          
T        Si     0.000000000000     0.924800000000     0.000000000000     0          
T        Si     0.224733333333     0.909366666667     0.930200000000     0          
T        Si     0.075200000000     0.741866666667     0.000000000000     0          
T        Si     0.315366666667     0.757300000000     0.069800000000     0          
T        Si     0.242700000000     0.891400000000     0.069800000000     0          
T        Si     0.108600000000     0.684633333333     0.069800000000     0          
T        Si     0.131588888889     0.795744444444     0.403133333333     0          
T        Si     0.265855555556     0.865044444444     0.440833333333     0          
T        Si     0.288855555556     0.911077777778     0.505133333333     0          
T        Si     0.261788888889     0.856911111111     0.564233333333     0          
T        Si     0.297422222222     0.777777777778     0.333333333333     0          
T        Si     0.222222222222     0.777777777778     0.528933333333     0          
T        Si     0.222222222222     0.777777777778     0.449933333333     0          
T        Si     0.204255555556     0.669177777778     0.403133333333     0          
T        Si     0.134955555556     0.734144444444     0.440833333333     0          
T        Si     0.088922222222     0.711111111111     0.505133333333     0          
T        Si     0.143088888889     0.738211111111     0.564233333333     0          
T        Si     0.222222222222     0.852977777778     0.333333333333     0          
T        Si     0.330822222222     0.868411111111     0.403133333333     0          
T        Si     0.265855555556     0.734144444444     0.440833333333     0          
T        Si     0.288888888889     0.711144444444     0.505133333333     0          
T        Si     0.261788888889     0.738211111111     0.564233333333     0          
T        Si     0.147022222222     0.702577777778     0.333333333333     0          
T        Si     0.240188888889     0.687144444444     0.263533333333     0          
T        Si     0.309488888889     0.821411111111     0.225833333333     0          
T        Si     0.022188888889     0.844411111111     0.161533333333     0          
T        Si     0.301355555556     0.817344444444     0.102433333333     0          
T        Si     0.222222222222     0.777777777778     0.137733333333     0          
T        Si     0.222222222222     0.777777777778     0.216733333333     0          
T        Si     0.312855555556     0.886377777778     0.263533333333     0          
T        Si     0.178588888889     0.821411111111     0.225833333333     0          
T        Si     0.155588888889     0.844444444444     0.161533333333     0          
T        Si     0.182655555556     0.817344444444     0.102433333333     0          
T        Si     0.113622222222     0.759811111111     0.263533333333     0          
T        Si     0.178588888889     0.690511111111     0.225833333333     0          
T        Si     0.155555555556     0.977811111111     0.161533333333     0          
T        Si     0.182655555556     0.698644444444     0.102433333333     0          
T        Si     0.312855555556     0.759811111111     0.263533333333     0          
T        Si     0.147022222222     0.777777777778     0.333333333333     0          
T        Si     0.240188888889     0.886377777778     0.263533333333     0          
T        Si     0.222222222222     0.702577777778     0.333333333333     0          
T        Si     0.113622222222     0.687144444444     0.263533333333     0          
T        Si     0.297422222222     0.852977777778     0.333333333333     0          
T        Si     0.204255555556     0.868411111111     0.403133333333     0          
T        Si     0.131588888889     0.669177777778     0.403133333333     0          
T        Si     0.330822222222     0.795744444444     0.403133333333     0          
T        Si     0.020477777778     0.906855555556     0.736466666667     0          
T        Si     0.154744444444     0.976155555556     0.774166666667     0          
T        Si     0.177744444444     0.688855555556     0.838466666667     0          
T        Si     0.150677777778     0.968022222222     0.897566666667     0          
T        Si     0.186311111111     0.888888888889     0.666666666667     0          
T        Si     0.111111111111     0.888888888889     0.862266666667     0          
T        Si     0.111111111111     0.888888888889     0.783266666667     0          
T        Si     0.093144444444     0.780288888889     0.736466666667     0          
T        Si     0.023844444444     0.845255555556     0.774166666667     0          
T        Si     0.311144444444     0.822222222222     0.838466666667     0          
T        Si     0.031977777778     0.849322222222     0.897566666667     0          
T        Si     0.111111111111     0.964088888889     0.666666666667     0          
T        Si     0.219711111111     0.979522222222     0.736466666667     0          
T        Si     0.154744444444     0.845255555556     0.774166666667     0          
T        Si     0.177777777778     0.822255555556     0.838466666667     0          
T        Si     0.150677777778     0.849322222222     0.897566666667     0          
T        Si     0.035911111111     0.813688888889     0.666666666667     0          
T        Si     0.129077777778     0.798255555556     0.596866666667     0          
T        Si     0.198377777778     0.932522222222     0.559166666667     0          
T        Si     0.244411111111     0.955522222222     0.494866666667     0          
T        Si     0.190244444444     0.928455555556     0.435766666667     0          
T        Si     0.111111111111     0.888888888889     0.471066666667     0          
T        Si     0.111111111111     0.888888888889     0.550066666667     0          
T        Si     0.201744444444     0.997488888889     0.596866666667     0          
T        Si     0.067477777778     0.932522222222     0.559166666667     0          
T        Si     0.044477777778     0.955555555556     0.494866666667     0          
T        Si     0.071544444444     0.928455555556     0.435766666667     0          
T        Si     0.002511111111     0.870922222222     0.596866666667     0          
T        Si     0.067477777778     0.801622222222     0.559166666667     0          
T        Si     0.044444444444     0.755588888889     0.494866666667     0          
T        Si     0.071544444444     0.809755555556     0.435766666667     0          
T        Si     0.201744444444     0.870922222222     0.596866666667     0          
T        Si     0.035911111111     0.888888888889     0.666666666667     0          
T        Si     0.129077777778     0.997488888889     0.596866666667     0          
T        Si     0.111111111111     0.813688888889     0.666666666667     0          
T        Si     0.002511111111     0.798255555556     0.596866666667     0          
T        Si     0.186311111111     0.964088888889     0.666666666667     0          
T        Si     0.093144444444     0.979522222222     0.736466666667     0          
T        Si     0.020477777778     0.780288888889     0.736466666667     0          
T        Si     0.219711111111     0.906855555556     0.736466666667     0          
T        Si     0.576033333333     0.017966666667     0.069800000000     0          
T        Si     0.376966666667     0.087266666667     0.107500000000     0          
T        Si     0.399966666667     0.133300000000     0.171800000000     0          
T        Si     0.372900000000     0.079133333333     0.230900000000     0          
T        Si     0.408533333333     0.000000000000     0.000000000000     0          
T        Si     0.333333333333     0.000000000000     0.195600000000     0          
T        Si     0.333333333333     0.000000000000     0.116600000000     0          
T        Si     0.648700000000     0.224733333333     0.069800000000     0          
T        Si     0.579400000000     0.289700000000     0.107500000000     0          
T        Si     0.533366666667     0.266666666667     0.171800000000     0          
T        Si     0.587533333333     0.293766666667     0.230900000000     0          
T        Si     0.333333333333     0.075200000000     0.000000000000     0          
T        Si     0.441933333333     0.090633333333     0.069800000000     0          
T        Si     0.376966666667     0.289700000000     0.107500000000     0          
T        Si     0.400000000000     0.266700000000     0.171800000000     0          
T        Si     0.372900000000     0.293766666667     0.230900000000     0          
T        Si     0.591466666667     0.258133333333     0.000000000000     0          
T        Si     0.351300000000     0.242700000000     0.930200000000     0          
T        Si     0.420600000000     0.043633333333     0.892500000000     0          
T        Si     0.466633333333     0.066633333333     0.828200000000     0          
T        Si     0.412466666667     0.039566666667     0.769100000000     0          
T        Si     0.333333333333     0.000000000000     0.804400000000     0          
T        Si     0.333333333333     0.000000000000     0.883400000000     0          
T        Si     0.423966666667     0.108600000000     0.930200000000     0          
T        Si     0.623033333333     0.043633333333     0.892500000000     0          
T        Si     0.600033333333     0.066666666667     0.828200000000     0          
T        Si     0.627100000000     0.039566666667     0.769100000000     0          
T        Si     0.558066666667     0.315366666667     0.930200000000     0          
T        Si     0.623033333333     0.246066666667     0.892500000000     0          
T        Si     0.600000000000     0.200033333333     0.828200000000     0          
T        Si     0.627100000000     0.254200000000     0.769100000000     0          
T        Si     0.423966666667     0.315366666667     0.930200000000     0          
T        Si     0.591466666667     0.000000000000     0.000000000000     0          
T        Si     0.351300000000     0.108600000000     0.930200000000     0          
T        Si     0.333333333333     0.258133333333     0.000000000000     0          
T        Si     0.558066666667     0.242700000000     0.930200000000     0          
T        Si     0.408533333333     0.075200000000     0.000000000000     0          
T        Si     0.648700000000     0.090633333333     0.069800000000     0          
T        Si     0.576033333333     0.224733333333     0.069800000000     0          
T        Si     0.441933333333     0.017966666667     0.069800000000     0          
T        Si     0.464922222222     0.129077777778     0.403133333333     0          
T        Si     0.599188888889     0.198377777778     0.440833333333     0          
T        Si     0.622188888889     0.244411111111     0.505133333333     0          
T        Si     0.595122222222     0.190244444444     0.564233333333     0          
T        Si     0.630755555556     0.111111111111     0.333333333333     0          
T        Si     0.555555555556     0.111111111111     0.528933333333     0          
T        Si     0.555555555556     0.111111111111     0.449933333333     0          
T        Si     0.537588888889     0.002511111111     0.403133333333     0          
T        Si     0.468288888889     0.067477777778     0.440833333333     0          
T        Si     0.422255555556     0.044444444444     0.505133333333     0          
T        Si     0.476422222222     0.071544444444     0.564233333333     0          
T        Si     0.555555555556     0.186311111111     0.333333333333     0          
T        Si     0.664155555556     0.201744444444     0.403133333333     0          
T        Si     0.599188888889     0.067477777778     0.440833333333     0          
T        Si     0.622222222222     0.044477777778     0.505133333333     0          
T        Si     0.595122222222     0.071544444444     0.564233333333     0          
T        Si     0.480355555556     0.035911111111     0.333333333333     0          
T        Si     0.573522222222     0.020477777778     0.263533333333     0          
T        Si     0.642822222222     0.154744444444     0.225833333333     0          
T        Si     0.355522222222     0.177744444444     0.161533333333     0          
T        Si     0.634688888889     0.150677777778     0.102433333333     0          
T        Si     0.555555555556     0.111111111111     0.137733333333     0          
T        Si     0.555555555556     0.111111111111     0.216733333333     0          
T        Si     0.646188888889     0.219711111111     0.263533333333     0          
T        Si     0.511922222222     0.154744444444     0.225833333333     0          
T        Si     0.488922222222     0.177777777778     0.161533333333     0          
T        Si     0.515988888889     0.150677777778     0.102433333333     0          
T        Si     0.446955555556     0.093144444444     0.263533333333     0          
T        Si     0.511922222222     0.023844444444     0.225833333333     0          
T        Si     0.488888888889     0.311144444444     0.161533333333     0          
T        Si     0.515988888889     0.031977777778     0.102433333333     0          
T        Si     0.646188888889     0.093144444444     0.263533333333     0          
T        Si     0.480355555556     0.111111111111     0.333333333333     0          
T        Si     0.573522222222     0.219711111111     0.263533333333     0          
T        Si     0.555555555556     0.035911111111     0.333333333333     0          
T        Si     0.446955555556     0.020477777778     0.263533333333     0          
T        Si     0.630755555556     0.186311111111     0.333333333333     0          
T        Si     0.537588888889     0.201744444444     0.403133333333     0          
T        Si     0.464922222222     0.002511111111     0.403133333333     0          
T        Si     0.664155555556     0.129077777778     0.403133333333     0          
T        Si     0.353811111111     0.240188888889     0.736466666667     0          
T        Si     0.488077777778     0.309488888889     0.774166666667     0          
T        Si     0.511077777778     0.022188888889     0.838466666667     0          
T        Si     0.484011111111     0.301355555556     0.897566666667     0          
T        Si     0.519644444444     0.222222222222     0.666666666667     0          
T        Si     0.444444444444     0.222222222222     0.862266666667     0          
T        Si     0.444444444444     0.222222222222     0.783266666667     0          
T        Si     0.426477777778     0.113622222222     0.736466666667     0          
T        Si     0.357177777778     0.178588888889     0.774166666667     0          
T        Si     0.644477777778     0.155555555556     0.838466666667     0          
T        Si     0.365311111111     0.182655555556     0.897566666667     0          
T        Si     0.444444444444     0.297422222222     0.666666666667     0          
T        Si     0.553044444444     0.312855555556     0.736466666667     0          
T        Si     0.488077777778     0.178588888889     0.774166666667     0          
T        Si     0.511111111111     0.155588888889     0.838466666667     0          
T        Si     0.484011111111     0.182655555556     0.897566666667     0          
T        Si     0.369244444444     0.147022222222     0.666666666667     0          
T        Si     0.462411111111     0.131588888889     0.596866666667     0          
T        Si     0.531711111111     0.265855555556     0.559166666667     0          
T        Si     0.577744444444     0.288855555556     0.494866666667     0          
T        Si     0.523577777778     0.261788888889     0.435766666667     0          
T        Si     0.444444444444     0.222222222222     0.471066666667     0          
T        Si     0.444444444444     0.222222222222     0.550066666667     0          
T        Si     0.535077777778     0.330822222222     0.596866666667     0          
T        Si     0.400811111111     0.265855555556     0.559166666667     0          
T        Si     0.377811111111     0.288888888889     0.494866666667     0          
T        Si     0.404877777778     0.261788888889     0.435766666667     0          
T        Si     0.335844444444     0.204255555556     0.596866666667     0          
T        Si     0.400811111111     0.134955555556     0.559166666667     0          
T        Si     0.377777777778     0.088922222222     0.494866666667     0          
T        Si     0.404877777778     0.143088888889     0.435766666667     0          
T        Si     0.535077777778     0.204255555556     0.596866666667     0          
T        Si     0.369244444444     0.222222222222     0.666666666667     0          
T        Si     0.462411111111     0.330822222222     0.596866666667     0          
T        Si     0.444444444444     0.147022222222     0.666666666667     0          
T        Si     0.335844444444     0.131588888889     0.596866666667     0          
T        Si     0.519644444444     0.297422222222     0.666666666667     0          
T        Si     0.426477777778     0.312855555556     0.736466666667     0          
T        Si     0.353811111111     0.113622222222     0.736466666667     0          
T        Si     0.553044444444     0.240188888889     0.736466666667     0          
T        Si     0.576033333333     0.351300000000     0.069800000000     0          
T        Si     0.376966666667     0.420600000000     0.107500000000     0          
T        Si     0.399966666667     0.466633333333     0.171800000000     0          
T        Si     0.372900000000     0.412466666667     0.230900000000     0          
T        Si     0.408533333333     0.333333333333     0.000000000000     0          
T        Si     0.333333333333     0.333333333333     0.195600000000     0          
T        Si     0.333333333333     0.333333333333     0.116600000000     0          
T        Si     0.648700000000     0.558066666667     0.069800000000     0          
T        Si     0.579400000000     0.623033333333     0.107500000000     0          
T        Si     0.533366666667     0.600000000000     0.171800000000     0          
T        Si     0.587533333333     0.627100000000     0.230900000000     0          
T        Si     0.333333333333     0.408533333333     0.000000000000     0          
T        Si     0.441933333333     0.423966666667     0.069800000000     0          
T        Si     0.376966666667     0.623033333333     0.107500000000     0          
T        Si     0.400000000000     0.600033333333     0.171800000000     0          
T        Si     0.372900000000     0.627100000000     0.230900000000     0          
T        Si     0.591466666667     0.591466666667     0.000000000000     0          
T        Si     0.351300000000     0.576033333333     0.930200000000     0          
T        Si     0.420600000000     0.376966666667     0.892500000000     0          
T        Si     0.466633333333     0.399966666667     0.828200000000     0          
T        Si     0.412466666667     0.372900000000     0.769100000000     0          
T        Si     0.333333333333     0.333333333333     0.804400000000     0          
T        Si     0.333333333333     0.333333333333     0.883400000000     0          
T        Si     0.423966666667     0.441933333333     0.930200000000     0          
T        Si     0.623033333333     0.376966666667     0.892500000000     0          
T        Si     0.600033333333     0.400000000000     0.828200000000     0          
T        Si     0.627100000000     0.372900000000     0.769100000000     0          
T        Si     0.558066666667     0.648700000000     0.930200000000     0          
T        Si     0.623033333333     0.579400000000     0.892500000000     0          
T        Si     0.600000000000     0.533366666667     0.828200000000     0          
T        Si     0.627100000000     0.587533333333     0.769100000000     0          
T        Si     0.423966666667     0.648700000000     0.930200000000     0          
T        Si     0.591466666667     0.333333333333     0.000000000000     0          
T        Si     0.351300000000     0.441933333333     0.930200000000     0          
T        Si     0.333333333333     0.591466666667     0.000000000000     0          
T        Si     0.558066666667     0.576033333333     0.930200000000     0          
T        Si     0.408533333333     0.408533333333     0.000000000000     0          
T        Si     0.648700000000     0.423966666667     0.069800000000     0          
T        Si     0.576033333333     0.558066666667     0.069800000000     0          
T        Si     0.441933333333     0.351300000000     0.069800000000     0          
T        Si     0.464922222222     0.462411111111     0.403133333333     0          
T        Si     0.599188888889     0.531711111111     0.440833333333     0          
T        Si     0.622188888889     0.577744444444     0.505133333333     0          
T        Si     0.595122222222     0.523577777778     0.564233333333     0          
T        Si     0.630755555556     0.444444444444     0.333333333333     0          
T        Si     0.555555555556     0.444444444444     0.528933333333     0          
T        Si     0.555555555556     0.444444444444     0.449933333333     0          
T        Si     0.537588888889     0.335844444444     0.403133333333     0          
T        Si     0.468288888889     0.400811111111     0.440833333333     0          
T        Si     0.422255555556     0.377777777778     0.505133333333     0          
T        Si     0.476422222222     0.404877777778     0.564233333333     0          
T        Si     0.555555555556     0.519644444444     0.333333333333     0          
T        Si     0.664155555556     0.535077777778     0.403133333333     0          
T        Si     0.599188888889     0.400811111111     0.440833333333     0          
T        Si     0.622222222222     0.377811111111     0.505133333333     0          
T        Si     0.595122222222     0.404877777778     0.564233333333     0          
T        Si     0.480355555556     0.369244444444     0.333333333333     0          
T        Si     0.573522222222     0.353811111111     0.263533333333     0          
T        Si     0.642822222222     0.488077777778     0.225833333333     0          
T        Si     0.355522222222     0.511077777778     0.161533333333     0          
T        Si     0.634688888889     0.484011111111     0.102433333333     0          
T        Si     0.555555555556     0.444444444444     0.137733333333     0          
T        Si     0.555555555556     0.444444444444     0.216733333333     0          
T        Si     0.646188888889     0.553044444444     0.263533333333     0          
T        Si     0.511922222222     0.488077777778     0.225833333333     0          
T        Si     0.488922222222     0.511111111111     0.161533333333     0          
T        Si     0.515988888889     0.484011111111     0.102433333333     0          
T        Si     0.446955555556     0.426477777778     0.263533333333     0          
T        Si     0.511922222222     0.357177777778     0.225833333333     0          
T        Si     0.488888888889     0.644477777778     0.161533333333     0          
T        Si     0.515988888889     0.365311111111     0.102433333333     0          
T        Si     0.646188888889     0.426477777778     0.263533333333     0          
T        Si     0.480355555556     0.444444444444     0.333333333333     0          
T        Si     0.573522222222     0.553044444444     0.263533333333     0          
T        Si     0.555555555556     0.369244444444     0.333333333333     0          
T        Si     0.446955555556     0.353811111111     0.263533333333     0          
T        Si     0.630755555556     0.519644444444     0.333333333333     0          
T        Si     0.537588888889     0.535077777778     0.403133333333     0          
T        Si     0.464922222222     0.335844444444     0.403133333333     0          
T        Si     0.664155555556     0.462411111111     0.403133333333     0          
T        Si     0.353811111111     0.573522222222     0.736466666667     0          
T        Si     0.488077777778     0.642822222222     0.774166666667     0          
T        Si     0.511077777778     0.355522222222     0.838466666667     0          
T        Si     0.484011111111     0.634688888889     0.897566666667     0          
T        Si     0.519644444444     0.555555555556     0.666666666667     0          
T        Si     0.444444444444     0.555555555556     0.862266666667     0          
T        Si     0.444444444444     0.555555555556     0.783266666667     0          
T        Si     0.426477777778     0.446955555556     0.736466666667     0          
T        Si     0.357177777778     0.511922222222     0.774166666667     0          
T        Si     0.644477777778     0.488888888889     0.838466666667     0          
T        Si     0.365311111111     0.515988888889     0.897566666667     0          
T        Si     0.444444444444     0.630755555556     0.666666666667     0          
T        Si     0.553044444444     0.646188888889     0.736466666667     0          
T        Si     0.488077777778     0.511922222222     0.774166666667     0          
T        Si     0.511111111111     0.488922222222     0.838466666667     0          
T        Si     0.484011111111     0.515988888889     0.897566666667     0          
T        Si     0.369244444444     0.480355555556     0.666666666667     0          
T        Si     0.462411111111     0.464922222222     0.596866666667     0          
T        Si     0.531711111111     0.599188888889     0.559166666667     0          
T        Si     0.577744444444     0.622188888889     0.494866666667     0          
T        Si     0.523577777778     0.595122222222     0.435766666667     0          
T        Si     0.444444444444     0.555555555556     0.471066666667     0          
T        Si     0.444444444444     0.555555555556     0.550066666667     0          
T        Si     0.535077777778     0.664155555556     0.596866666667     0          
T        Si     0.400811111111     0.599188888889     0.559166666667     0          
T        Si     0.377811111111     0.622222222222     0.494866666667     0          
T        Si     0.404877777778     0.595122222222     0.435766666667     0          
T        Si     0.335844444444     0.537588888889     0.596866666667     0          
T        Si     0.400811111111     0.468288888889     0.559166666667     0          
T        Si     0.377777777778     0.422255555556     0.494866666667     0          
T        Si     0.404877777778     0.476422222222     0.435766666667     0          
T        Si     0.535077777778     0.537588888889     0.596866666667     0          
T        Si     0.369244444444     0.555555555556     0.666666666667     0          
T        Si     0.462411111111     0.664155555556     0.596866666667     0          
T        Si     0.444444444444     0.480355555556     0.666666666667     0          
T        Si     0.335844444444     0.464922222222     0.596866666667     0          
T        Si     0.519644444444     0.630755555556     0.666666666667     0          
T        Si     0.426477777778     0.646188888889     0.736466666667     0          
T        Si     0.353811111111     0.446955555556     0.736466666667     0          
T        Si     0.553044444444     0.573522222222     0.736466666667     0          
T        Si     0.576033333333     0.684633333333     0.069800000000     0          
T        Si     0.376966666667     0.753933333333     0.107500000000     0          
T        Si     0.399966666667     0.799966666667     0.171800000000     0          
T        Si     0.372900000000     0.745800000000     0.230900000000     0          
T        Si     0.408533333333     0.666666666667     0.000000000000     0          
T        Si     0.333333333333     0.666666666667     0.195600000000     0          
T        Si     0.333333333333     0.666666666667     0.116600000000     0          
T        Si     0.648700000000     0.891400000000     0.069800000000     0          
T        Si     0.579400000000     0.956366666667     0.107500000000     0          
T        Si     0.533366666667     0.933333333333     0.171800000000     0          
T        Si     0.587533333333     0.960433333333     0.230900000000     0          
T        Si     0.333333333333     0.741866666667     0.000000000000     0          
T        Si     0.441933333333     0.757300000000     0.069800000000     0          
T        Si     0.376966666667     0.956366666667     0.107500000000     0          
T        Si     0.400000000000     0.933366666667     0.171800000000     0          
T        Si     0.372900000000     0.960433333333     0.230900000000     0          
T        Si     0.591466666667     0.924800000000     0.000000000000     0          
T        Si     0.351300000000     0.909366666667     0.930200000000     0          
T        Si     0.420600000000     0.710300000000     0.892500000000     0          
T        Si     0.466633333333     0.733300000000     0.828200000000     0          
T        Si     0.412466666667     0.706233333333     0.769100000000     0          
T        Si     0.333333333333     0.666666666667     0.804400000000     0          
T        Si     0.333333333333     0.666666666667     0.883400000000     0          
T        Si     0.423966666667     0.775266666667     0.930200000000     0          
T        Si     0.623033333333     0.710300000000     0.892500000000     0          
T        Si     0.600033333333     0.733333333333     0.828200000000     0          
T        Si     0.627100000000     0.706233333333     0.769100000000     0          
T        Si     0.558066666667     0.982033333333     0.930200000000     0          
T        Si     0.623033333333     0.912733333333     0.892500000000     0          
T        Si     0.600000000000     0.866700000000     0.828200000000     0          
T        Si     0.627100000000     0.920866666667     0.769100000000     0          
T        Si     0.423966666667     0.982033333333     0.930200000000     0          
T        Si     0.591466666667     0.666666666667     0.000000000000     0          
T        Si     0.351300000000     0.775266666667     0.930200000000     0          
T        Si     0.333333333333     0.924800000000     0.000000000000     0          
T        Si     0.558066666667     0.909366666667     0.930200000000     0          
T        Si     0.408533333333     0.741866666667     0.000000000000     0          
T        Si     0.648700000000     0.757300000000     0.069800000000     0          
T        Si     0.576033333333     0.891400000000     0.069800000000     0          
T        Si     0.441933333333     0.684633333333     0.069800000000     0          
T        Si     0.464922222222     0.795744444444     0.403133333333     0          
T        Si     0.599188888889     0.865044444444     0.440833333333     0          
T        Si     0.622188888889     0.911077777778     0.505133333333     0          
T        Si     0.595122222222     0.856911111111     0.564233333333     0          
T        Si     0.630755555556     0.777777777778     0.333333333333     0          
T        Si     0.555555555556     0.777777777778     0.528933333333     0          
T        Si     0.555555555556     0.777777777778     0.449933333333     0          
T        Si     0.537588888889     0.669177777778     0.403133333333     0          
T        Si     0.468288888889     0.734144444444     0.440833333333     0          
T        Si     0.422255555556     0.711111111111     0.505133333333     0          
T        Si     0.476422222222     0.738211111111     0.564233333333     0          
T        Si     0.555555555556     0.852977777778     0.333333333333     0          
T        Si     0.664155555556     0.868411111111     0.403133333333     0          
T        Si     0.599188888889     0.734144444444     0.440833333333     0          
T        Si     0.622222222222     0.711144444444     0.505133333333     0          
T        Si     0.595122222222     0.738211111111     0.564233333333     0          
T        Si     0.480355555556     0.702577777778     0.333333333333     0          
T        Si     0.573522222222     0.687144444444     0.263533333333     0          
T        Si     0.642822222222     0.821411111111     0.225833333333     0          
T        Si     0.355522222222     0.844411111111     0.161533333333     0          
T        Si     0.634688888889     0.817344444444     0.102433333333     0          
T        Si     0.555555555556     0.777777777778     0.137733333333     0          
T        Si     0.555555555556     0.777777777778     0.216733333333     0          
T        Si     0.646188888889     0.886377777778     0.263533333333     0          
T        Si     0.511922222222     0.821411111111     0.225833333333     0          
T        Si     0.488922222222     0.844444444444     0.161533333333     0          
T        Si     0.515988888889     0.817344444444     0.102433333333     0          
T        Si     0.446955555556     0.759811111111     0.263533333333     0          
T        Si     0.511922222222     0.690511111111     0.225833333333     0          
T        Si     0.488888888889     0.977811111111     0.161533333333     0          
T        Si     0.515988888889     0.698644444444     0.102433333333     0          
T        Si     0.646188888889     0.759811111111     0.263533333333     0          
T        Si     0.480355555556     0.777777777778     0.333333333333     0          
T        Si     0.573522222222     0.886377777778     0.263533333333     0          
T        Si     0.555555555556     0.702577777778     0.333333333333     0          
T        Si     0.446955555556     0.687144444444     0.263533333333     0          
T        Si     0.630755555556     0.852977777778     0.333333333333     0          
T        Si     0.537588888889     0.868411111111     0.403133333333     0          
T        Si     0.464922222222     0.669177777778     0.403133333333     0          
T        Si     0.664155555556     0.795744444444     0.403133333333     0          
T        Si     0.353811111111     0.906855555556     0.736466666667     0          
T        Si     0.488077777778     0.976155555556     0.774166666667     0          
T        Si     0.511077777778     0.688855555556     0.838466666667     0          
T        Si     0.484011111111     0.968022222222     0.897566666667     0          
T        Si     0.519644444444     0.888888888889     0.666666666667     0          
T        Si     0.444444444444     0.888888888889     0.862266666667     0          
T        Si     0.444444444444     0.888888888889     0.783266666667     0          
T        Si     0.426477777778     0.780288888889     0.736466666667     0          
T        Si     0.357177777778     0.845255555556     0.774166666667     0          
T        Si     0.644477777778     0.822222222222     0.838466666667     0          
T        Si     0.365311111111     0.849322222222     0.897566666667     0          
T        Si     0.444444444444     0.964088888889     0.666666666667     0          
T        Si     0.553044444444     0.979522222222     0.736466666667     0          
T        Si     0.488077777778     0.845255555556     0.774166666667     0          
T        Si     0.511111111111     0.822255555556     0.838466666667     0          
T        Si     0.484011111111     0.849322222222     0.897566666667     0          
T        Si     0.369244444444     0.813688888889     0.666666666667     0          
T        Si     0.462411111111     0.798255555556     0.596866666667     0          
T        Si     0.531711111111     0.932522222222     0.559166666667     0          
T        Si     0.577744444444     0.955522222222     0.494866666667     0          
T        Si     0.523577777778     0.928455555556     0.435766666667     0          
T        Si     0.444444444444     0.888888888889     0.471066666667     0          
T        Si     0.444444444444     0.888888888889     0.550066666667     0          
T        Si     0.535077777778     0.997488888889     0.596866666667     0          
T        Si     0.400811111111     0.932522222222     0.559166666667     0          
T        Si     0.377811111111     0.955555555556     0.494866666667     0          
T        Si     0.404877777778     0.928455555556     0.435766666667     0          
T        Si     0.335844444444     0.870922222222     0.596866666667     0          
T        Si     0.400811111111     0.801622222222     0.559166666667     0          
T        Si     0.377777777778     0.755588888889     0.494866666667     0          
T        Si     0.404877777778     0.809755555556     0.435766666667     0          
T        Si     0.535077777778     0.870922222222     0.596866666667     0          
T        Si     0.369244444444     0.888888888889     0.666666666667     0          
T        Si     0.462411111111     0.997488888889     0.596866666667     0          
T        Si     0.444444444444     0.813688888889     0.666666666667     0          
T        Si     0.335844444444     0.798255555556     0.596866666667     0          
T        Si     0.519644444444     0.964088888889     0.666666666667     0          
T        Si     0.426477777778     0.979522222222     0.736466666667     0          
T        Si     0.353811111111     0.780288888889     0.736466666667     0          
T        Si     0.553044444444     0.906855555556     0.736466666667     0          
T        Si     0.909366666667     0.017966666667     0.069800000000     0          
T        Si     0.710300000000     0.087266666667     0.107500000000     0          
T        Si     0.733300000000     0.133300000000     0.171800000000     0          
T        Si     0.706233333333     0.079133333333     0.230900000000     0          
T        Si     0.741866666667     0.000000000000     0.000000000000     0          
T        Si     0.666666666667     0.000000000000     0.195600000000     0          
T        Si     0.666666666667     0.000000000000     0.116600000000     0          
T        Si     0.982033333333     0.224733333333     0.069800000000     0          
T        Si     0.912733333333     0.289700000000     0.107500000000     0          
T        Si     0.866700000000     0.266666666667     0.171800000000     0          
T        Si     0.920866666667     0.293766666667     0.230900000000     0          
T        Si     0.666666666667     0.075200000000     0.000000000000     0          
T        Si     0.775266666667     0.090633333333     0.069800000000     0          
T        Si     0.710300000000     0.289700000000     0.107500000000     0          
T        Si     0.733333333333     0.266700000000     0.171800000000     0          
T        Si     0.706233333333     0.293766666667     0.230900000000     0          
T        Si     0.924800000000     0.258133333333     0.000000000000     0          
T        Si     0.684633333333     0.242700000000     0.930200000000     0          
T        Si     0.753933333333     0.043633333333     0.892500000000     0          
T        Si     0.799966666667     0.066633333333     0.828200000000     0          
T        Si     0.745800000000     0.039566666667     0.769100000000     0          
T        Si     0.666666666667     0.000000000000     0.804400000000     0          
T        Si     0.666666666667     0.000000000000     0.883400000000     0          
T        Si     0.757300000000     0.108600000000     0.930200000000     0          
T        Si     0.956366666667     0.043633333333     0.892500000000     0          
T        Si     0.933366666667     0.066666666667     0.828200000000     0          
T        Si     0.960433333333     0.039566666667     0.769100000000     0          
T        Si     0.891400000000     0.315366666667     0.930200000000     0          
T        Si     0.956366666667     0.246066666667     0.892500000000     0          
T        Si     0.933333333333     0.200033333333     0.828200000000     0          
T        Si     0.960433333333     0.254200000000     0.769100000000     0          
T        Si     0.757300000000     0.315366666667     0.930200000000     0          
T        Si     0.924800000000     0.000000000000     0.000000000000     0          
T        Si     0.684633333333     0.108600000000     0.930200000000     0          
T        Si     0.666666666667     0.258133333333     0.000000000000     0          
T        Si     0.891400000000     0.242700000000     0.930200000000     0          
T        Si     0.741866666667     0.075200000000     0.000000000000     0          
T        Si     0.982033333333     0.090633333333     0.069800000000     0          
T        Si     0.909366666667     0.224733333333     0.069800000000     0          
T        Si     0.775266666667     0.017966666667     0.069800000000     0          
T        Si     0.798255555556     0.129077777778     0.403133333333     0          
T        Si     0.932522222222     0.198377777778     0.440833333333     0          
T        Si     0.955522222222     0.244411111111     0.505133333333     0          
T        Si     0.928455555556     0.190244444444     0.564233333333     0          
T        Si     0.964088888889     0.111111111111     0.333333333333     0          
T        Si     0.888888888889     0.111111111111     0.528933333333     0          
T        Si     0.888888888889     0.111111111111     0.449933333333     0          
T        Si     0.870922222222     0.002511111111     0.403133333333     0          
T        Si     0.801622222222     0.067477777778     0.440833333333     0          
T        Si     0.755588888889     0.044444444444     0.505133333333     0          
T        Si     0.809755555556     0.071544444444     0.564233333333     0          
T        Si     0.888888888889     0.186311111111     0.333333333333     0          
T        Si     0.997488888889     0.201744444444     0.403133333333     0          
T        Si     0.932522222222     0.067477777778     0.440833333333     0          
T        Si     0.955555555556     0.044477777778     0.505133333333     0          
T        Si     0.928455555556     0.071544444444     0.564233333333     0          
T        Si     0.813688888889     0.035911111111     0.333333333333     0          
T        Si     0.906855555556     0.020477777778     0.263533333333     0          
T        Si     0.976155555556     0.154744444444     0.225833333333     0          
T        Si     0.688855555556     0.177744444444     0.161533333333     0          
T        Si     0.968022222222     0.150677777778     0.102433333333     0          
T        Si     0.888888888889     0.111111111111     0.137733333333     0          
T        Si     0.888888888889     0.111111111111     0.216733333333     0          
T        Si     0.979522222222     0.219711111111     0.263533333333     0          
T        Si     0.845255555556     0.154744444444     0.225833333333     0          
T        Si     0.822255555556     0.177777777778     0.161533333333     0          
T        Si     0.849322222222     0.150677777778     0.102433333333     0          
T        Si     0.780288888889     0.093144444444     0.263533333333     0          
T        Si     0.845255555556     0.023844444444     0.225833333333     0          
T        Si     0.822222222222     0.311144444444     0.161533333333     0          
T        Si     0.849322222222     0.031977777778     0.102433333333     0          
T        Si     0.979522222222     0.093144444444     0.263533333333     0          
T        Si     0.813688888889     0.111111111111     0.333333333333     0          
T        Si     0.906855555556     0.219711111111     0.263533333333     0          
T        Si     0.888888888889     0.035911111111     0.333333333333     0          
T        Si     0.780288888889     0.020477777778     0.263533333333     0          
T        Si     0.964088888889     0.186311111111     0.333333333333     0          
T        Si     0.870922222222     0.201744444444     0.403133333333     0          
T        Si     0.798255555556     0.002511111111     0.403133333333     0          
T        Si     0.997488888889     0.129077777778     0.403133333333     0          
T        Si     0.687144444444     0.240188888889     0.736466666667     0          
T        Si     0.821411111111     0.309488888889     0.774166666667     0          
T        Si     0.844411111111     0.022188888889     0.838466666667     0          
T        Si     0.817344444444     0.301355555556     0.897566666667     0          
T        Si     0.852977777778     0.222222222222     0.666666666667     0          
T        Si     0.777777777778     0.222222222222     0.862266666667     0          
T        Si     0.777777777778     0.222222222222     0.783266666667     0          
T        Si     0.759811111111     0.113622222222     0.736466666667     0          
T        Si     0.690511111111     0.178588888889     0.774166666667     0          
T        Si     0.977811111111     0.155555555556     0.838466666667     0          
T        Si     0.698644444444     0.182655555556     0.897566666667     0          
T        Si     0.777777777778     0.297422222222     0.666666666667     0          
T        Si     0.886377777778     0.312855555556     0.736466666667     0          
T        Si     0.821411111111     0.178588888889     0.774166666667     0          
T        Si     0.844444444444     0.155588888889     0.838466666667     0          
T        Si     0.817344444444     0.182655555556     0.897566666667     0          
T        Si     0.702577777778     0.147022222222     0.666666666667     0          
T        Si     0.795744444444     0.131588888889     0.596866666667     0          
T        Si     0.865044444444     0.265855555556     0.559166666667     0          
T        Si     0.911077777778     0.288855555556     0.494866666667     0          
T        Si     0.856911111111     0.261788888889     0.435766666667     0          
T        Si     0.777777777778     0.222222222222     0.471066666667     0          
T        Si     0.777777777778     0.222222222222     0.550066666667     0          
T        Si     0.868411111111     0.330822222222     0.596866666667     0          
T        Si     0.734144444444     0.265855555556     0.559166666667     0          
T        Si     0.711144444444     0.288888888889     0.494866666667     0          
T        Si     0.738211111111     0.261788888889     0.435766666667     0          
T        Si     0.669177777778     0.204255555556     0.596866666667     0          
T        Si     0.734144444444     0.134955555556     0.559166666667     0          
T        Si     0.711111111111     0.088922222222     0.494866666667     0          
T        Si     0.738211111111     0.143088888889     0.435766666667     0          
T        Si     0.868411111111     0.204255555556     0.596866666667     0          
T        Si     0.702577777778     0.222222222222     0.666666666667     0          
T        Si     0.795744444444     0.330822222222     0.596866666667     0          
T        Si     0.777777777778     0.147022222222     0.666666666667     0          
T        Si     0.669177777778     0.131588888889     0.596866666667     0          
T        Si     0.852977777778     0.297422222222     0.666666666667     0          
T        Si     0.759811111111     0.312855555556     0.736466666667     0          
T        Si     0.687144444444     0.113622222222     0.736466666667     0          
T        Si     0.886377777778     0.240188888889     0.736466666667     0          
T        Si     0.909366666667     0.351300000000     0.069800000000     0          
T        Si     0.710300000000     0.420600000000     0.107500000000     0          
T        Si     0.733300000000     0.466633333333     0.171800000000     0          
T        Si     0.706233333333     0.412466666667     0.230900000000     0          
T        Si     0.741866666667     0.333333333333     0.000000000000     0          
T        Si     0.666666666667     0.333333333333     0.195600000000     0          
T        Si     0.666666666667     0.333333333333     0.116600000000     0          
T        Si     0.982033333333     0.558066666667     0.069800000000     0          
T        Si     0.912733333333     0.623033333333     0.107500000000     0          
T        Si     0.866700000000     0.600000000000     0.171800000000     0          
T        Si     0.920866666667     0.627100000000     0.230900000000     0          
T        Si     0.666666666667     0.408533333333     0.000000000000     0          
T        Si     0.775266666667     0.423966666667     0.069800000000     0          
T        Si     0.710300000000     0.623033333333     0.107500000000     0          
T        Si     0.733333333333     0.600033333333     0.171800000000     0          
T        Si     0.706233333333     0.627100000000     0.230900000000     0          
T        Si     0.924800000000     0.591466666667     0.000000000000     0          
T        Si     0.684633333333     0.576033333333     0.930200000000     0          
T        Si     0.753933333333     0.376966666667     0.892500000000     0          
T        Si     0.799966666667     0.399966666667     0.828200000000     0          
T        Si     0.745800000000     0.372900000000     0.769100000000     0          
T        Si     0.666666666667     0.333333333333     0.804400000000     0          
T        Si     0.666666666667     0.333333333333     0.883400000000     0          
T        Si     0.757300000000     0.441933333333     0.930200000000     0          
T        Si     0.956366666667     0.376966666667     0.892500000000     0          
T        Si     0.933366666667     0.400000000000     0.828200000000     0          
T        Si     0.960433333333     0.372900000000     0.769100000000     0          
T        Si     0.891400000000     0.648700000000     0.930200000000     0          
T        Si     0.956366666667     0.579400000000     0.892500000000     0          
T        Si     0.933333333333     0.533366666667     0.828200000000     0          
T        Si     0.960433333333     0.587533333333     0.769100000000     0          
T        Si     0.757300000000     0.648700000000     0.930200000000     0          
T        Si     0.924800000000     0.333333333333     0.000000000000     0          
T        Si     0.684633333333     0.441933333333     0.930200000000     0          
T        Si     0.666666666667     0.591466666667     0.000000000000     0          
T        Si     0.891400000000     0.576033333333     0.930200000000     0          
T        Si     0.741866666667     0.408533333333     0.000000000000     0          
T        Si     0.982033333333     0.423966666667     0.069800000000     0          
T        Si     0.909366666667     0.558066666667     0.069800000000     0          
T        Si     0.775266666667     0.351300000000     0.069800000000     0          
T        Si     0.798255555556     0.462411111111     0.403133333333     0          
T        Si     0.932522222222     0.531711111111     0.440833333333     0          
T        Si     0.955522222222     0.577744444444     0.505133333333     0          
T        Si     0.928455555556     0.523577777778     0.564233333333     0          
T        Si     0.964088888889     0.444444444444     0.333333333333     0          
T        Si     0.888888888889     0.444444444444     0.528933333333     0          
T        Si     0.888888888889     0.444444444444     0.449933333333     0          
T        Si     0.870922222222     0.335844444444     0.403133333333     0          
T        Si     0.801622222222     0.400811111111     0.440833333333     0          
T        Si     0.755588888889     0.377777777778     0.505133333333     0          
T        Si     0.809755555556     0.404877777778     0.564233333333     0          
T        Si     0.888888888889     0.519644444444     0.333333333333     0          
T        Si     0.997488888889     0.535077777778     0.403133333333     0          
T        Si     0.932522222222     0.400811111111     0.440833333333     0          
T        Si     0.955555555556     0.377811111111     0.505133333333     0          
T        Si     0.928455555556     0.404877777778     0.564233333333     0          
T        Si     0.813688888889     0.369244444444     0.333333333333     0          
T        Si     0.906855555556     0.353811111111     0.263533333333     0          
T        Si     0.976155555556     0.488077777778     0.225833333333     0          
T        Si     0.688855555556     0.511077777778     0.161533333333     0          
T        Si     0.968022222222     0.484011111111     0.102433333333     0          
T        Si     0.888888888889     0.444444444444     0.137733333333     0          
T        Si     0.888888888889     0.444444444444     0.216733333333     0          
T        Si     0.979522222222     0.553044444444     0.263533333333     0          
T        Si     0.845255555556     0.488077777778     0.225833333333     0          
T        Si     0.822255555556     0.511111111111     0.161533333333     0          
T        Si     0.849322222222     0.484011111111     0.102433333333     0          
T        Si     0.780288888889     0.426477777778     0.263533333333     0          
T        Si     0.845255555556     0.357177777778     0.225833333333     0          
T        Si     0.822222222222     0.644477777778     0.161533333333     0          
T        Si     0.849322222222     0.365311111111     0.102433333333     0          
T        Si     0.979522222222     0.426477777778     0.263533333333     0          
T        Si     0.813688888889     0.444444444444     0.333333333333     0          
T        Si     0.906855555556     0.553044444444     0.263533333333     0          
T        Si     0.888888888889     0.369244444444     0.333333333333     0          
T        Si     0.780288888889     0.353811111111     0.263533333333     0          
T        Si     0.964088888889     0.519644444444     0.333333333333     0          
T        Si     0.870922222222     0.535077777778     0.403133333333     0          
T        Si     0.798255555556     0.335844444444     0.403133333333     0          
T        Si     0.997488888889     0.462411111111     0.403133333333     0          
T        Si     0.687144444444     0.573522222222     0.736466666667     0          
T        Si     0.821411111111     0.642822222222     0.774166666667     0          
T        Si     0.844411111111     0.355522222222     0.838466666667     0          
T        Si     0.817344444444     0.634688888889     0.897566666667     0          
T        Si     0.852977777778     0.555555555556     0.666666666667     0          
T        Si     0.777777777778     0.555555555556     0.862266666667     0          
T        Si     0.777777777778     0.555555555556     0.783266666667     0          
T        Si     0.759811111111     0.446955555556     0.736466666667     0          
T        Si     0.690511111111     0.511922222222     0.774166666667     0          
T        Si     0.977811111111     0.488888888889     0.838466666667     0          
T        Si     0.698644444444     0.515988888889     0.897566666667     0          
T        Si     0.777777777778     0.630755555556     0.666666666667     0          
T        Si     0.886377777778     0.646188888889     0.736466666667     0          
T        Si     0.821411111111     0.511922222222     0.774166666667     0          
T        Si     0.844444444444     0.488922222222     0.838466666667     0          
T        Si     0.817344444444     0.515988888889     0.897566666667     0          
T        Si     0.702577777778     0.480355555556     0.666666666667     0          
T        Si     0.795744444444     0.464922222222     0.596866666667     0          
T        Si     0.865044444444     0.599188888889     0.559166666667     0          
T        Si     0.911077777778     0.622188888889     0.494866666667     0          
T        Si     0.856911111111     0.595122222222     0.435766666667     0          
T        Si     0.777777777778     0.555555555556     0.471066666667     0          
T        Si     0.777777777778     0.555555555556     0.550066666667     0          
T        Si     0.868411111111     0.664155555556     0.596866666667     0          
T        Si     0.734144444444     0.599188888889     0.559166666667     0          
T        Si     0.711144444444     0.622222222222     0.494866666667     0          
T        Si     0.738211111111     0.595122222222     0.435766666667     0          
T        Si     0.669177777778     0.537588888889     0.596866666667     0          
T        Si     0.734144444444     0.468288888889     0.559166666667     0          
T        Si     0.711111111111     0.422255555556     0.494866666667     0          
T        Si     0.738211111111     0.476422222222     0.435766666667     0          
T        Si     0.868411111111     0.537588888889     0.596866666667     0          
T        Si     0.702577777778     0.555555555556     0.666666666667     0          
T        Si     0.795744444444     0.664155555556     0.596866666667     0          
T        Si     0.777777777778     0.480355555556     0.666666666667     0          
T        Si     0.669177777778     0.464922222222     0.596866666667     0          
T        Si     0.852977777778     0.630755555556     0.666666666667     0          
T        Si     0.759811111111     0.646188888889     0.736466666667     0          
T        Si     0.687144444444     0.446955555556     0.736466666667     0          
T        Si     0.886377777778     0.573522222222     0.736466666667     0          
T        Si     0.909366666667     0.684633333333     0.069800000000     0          
T        Si     0.710300000000     0.753933333333     0.107500000000     0          
T        Si     0.733300000000     0.799966666667     0.171800000000     0          
T        Si     0.706233333333     0.745800000000     0.230900000000     0          
T        Si     0.741866666667     0.666666666667     0.000000000000     0          
T        Si     0.666666666667     0.666666666667     0.195600000000     0          
T        Si     0.666666666667     0.666666666667     0.116600000000     0          
T        Si     0.982033333333     0.891400000000     0.069800000000     0          
T        Si     0.912733333333     0.956366666667     0.107500000000     0          
T        Si     0.866700000000     0.933333333333     0.171800000000     0          
T        Si     0.920866666667     0.960433333333     0.230900000000     0          
T        Si     0.666666666667     0.741866666667     0.000000000000     0          
T        Si     0.775266666667     0.757300000000     0.069800000000     0          
T        Si     0.710300000000     0.956366666667     0.107500000000     0          
T        Si     0.733333333333     0.933366666667     0.171800000000     0          
T        Si     0.706233333333     0.960433333333     0.230900000000     0          
T        Si     0.924800000000     0.924800000000     0.000000000000     0          
T        Si     0.684633333333     0.909366666667     0.930200000000     0          
T        Si     0.753933333333     0.710300000000     0.892500000000     0          
T        Si     0.799966666667     0.733300000000     0.828200000000     0          
T        Si     0.745800000000     0.706233333333     0.769100000000     0          
T        Si     0.666666666667     0.666666666667     0.804400000000     0          
T        Si     0.666666666667     0.666666666667     0.883400000000     0          
T        Si     0.757300000000     0.775266666667     0.930200000000     0          
T        Si     0.956366666667     0.710300000000     0.892500000000     0          
T        Si     0.933366666667     0.733333333333     0.828200000000     0          
T        Si     0.960433333333     0.706233333333     0.769100000000     0          
T        Si     0.891400000000     0.982033333333     0.930200000000     0          
T        Si     0.956366666667     0.912733333333     0.892500000000     0          
T        Si     0.933333333333     0.866700000000     0.828200000000     0          
T        Si     0.960433333333     0.920866666667     0.769100000000     0          
T        Si     0.757300000000     0.982033333333     0.930200000000     0          
T        Si     0.924800000000     0.666666666667     0.000000000000     0          
T        Si     0.684633333333     0.775266666667     0.930200000000     0          
T        Si     0.666666666667     0.924800000000     0.000000000000     0          
T        Si     0.891400000000     0.909366666667     0.930200000000     0          
T        Si     0.741866666667     0.741866666667     0.000000000000     0          
T        Si     0.982033333333     0.757300000000     0.069800000000     0          
T        Si     0.909366666667     0.891400000000     0.069800000000     0          
T        Si     0.775266666667     0.684633333333     0.069800000000     0          
T        Si     0.798255555556     0.795744444444     0.403133333333     0          
T        Si     0.932522222222     0.865044444444     0.440833333333     0          
T        Si     0.955522222222     0.911077777778     0.505133333333     0          
T        Si     0.928455555556     0.856911111111     0.564233333333     0          
T        Si     0.964088888889     0.777777777778     0.333333333333     0          
T        Si     0.888888888889     0.777777777778     0.528933333333     0          
T        Si     0.888888888889     0.777777777778     0.449933333333     0          
T        Si     0.870922222222     0.669177777778     0.403133333333     0          
T        Si     0.801622222222     0.734144444444     0.440833333333     0          
T        Si     0.755588888889     0.711111111111     0.505133333333     0          
T        Si     0.809755555556     0.738211111111     0.564233333333     0          
T        Si     0.888888888889     0.852977777778     0.333333333333     0          
T        Si     0.997488888889     0.868411111111     0.403133333333     0          
T        Si     0.932522222222     0.734144444444     0.440833333333     0          
T        Si     0.955555555556     0.711144444444     0.505133333333     0          
T        Si     0.928455555556     0.738211111111     0.564233333333     0          
T        Si     0.813688888889     0.702577777778     0.333333333333     0          
T        Si     0.906855555556     0.687144444444     0.263533333333     0          
T        Si     0.976155555556     0.821411111111     0.225833333333     0          
T        Si     0.688855555556     0.844411111111     0.161533333333     0          
T        Si     0.968022222222     0.817344444444     0.102433333333     0          
T        Si     0.888888888889     0.777777777778     0.137733333333     0          
T        Si     0.888888888889     0.777777777778     0.216733333333     0          
T        Si     0.979522222222     0.886377777778     0.263533333333     0          
T        Si     0.845255555556     0.821411111111     0.225833333333     0          
T        Si     0.822255555556     0.844444444444     0.161533333333     0          
T        Si     0.849322222222     0.817344444444     0.102433333333     0          
T        Si     0.780288888889     0.759811111111     0.263533333333     0          
T        Si     0.845255555556     0.690511111111     0.225833333333     0          
T        Si     0.822222222222     0.977811111111     0.161533333333     0          
T        Si     0.849322222222     0.698644444444     0.102433333333     0          
T        Si     0.979522222222     0.759811111111     0.263533333333     0          
T        Si     0.813688888889     0.777777777778     0.333333333333     0          
T        Si     0.906855555556     0.886377777778     0.263533333333     0          
T        Si     0.888888888889     0.702577777778     0.333333333333     0          
T        Si     0.780288888889     0.687144444444     0.263533333333     0          
T        Si     0.964088888889     0.852977777778     0.333333333333     0          
T        Si     0.870922222222     0.868411111111     0.403133333333     0          
T        Si     0.798255555556     0.669177777778     0.403133333333     0          
T        Si     0.997488888889     0.795744444444     0.403133333333     0          
T        Si     0.687144444444     0.906855555556     0.736466666667     0          
T        Si     0.821411111111     0.976155555556     0.774166666667     0          
T        Si     0.844411111111     0.688855555556     0.838466666667     0          
T        Si     0.817344444444     0.968022222222     0.897566666667     0          
T        Si     0.852977777778     0.888888888889     0.666666666667     0          
T        Si     0.777777777778     0.888888888889     0.862266666667     0          
T        Si     0.777777777778     0.888888888889     0.783266666667     0          
T        Si     0.759811111111     0.780288888889     0.736466666667     0          
T        Si     0.690511111111     0.845255555556     0.774166666667     0          
T        Si     0.977811111111     0.822222222222     0.838466666667     0          
T        Si     0.698644444444     0.849322222222     0.897566666667     0          
T        Si     0.777777777778     0.964088888889     0.666666666667     0          
T        Si     0.886377777778     0.979522222222     0.736466666667     0          
T        Si     0.821411111111     0.845255555556     0.774166666667     0          
T        Si     0.844444444444     0.822255555556     0.838466666667     0          
T        Si     0.817344444444     0.849322222222     0.897566666667     0          
T        Si     0.702577777778     0.813688888889     0.666666666667     0          
T        Si     0.795744444444     0.798255555556     0.596866666667     0          
T        Si     0.865044444444     0.932522222222     0.559166666667     0          
T        Si     0.911077777778     0.955522222222     0.494866666667     0          
T        Si     0.856911111111     0.928455555556     0.435766666667     0          
T        Si     0.777777777778     0.888888888889     0.471066666667     0          
T        Si     0.777777777778     0.888888888889     0.550066666667     0          
T        Si     0.868411111111     0.997488888889     0.596866666667     0          
T        Si     0.734144444444     0.932522222222     0.559166666667     0          
T        Si     0.711144444444     0.955555555556     0.494866666667     0          
T        Si     0.738211111111     0.928455555556     0.435766666667     0          
T        Si     0.669177777778     0.870922222222     0.596866666667     0          
T        Si     0.734144444444     0.801622222222     0.559166666667     0          
T        Si     0.711111111111     0.755588888889     0.494866666667     0          
T        Si     0.738211111111     0.809755555556     0.435766666667     0          
T        Si     0.868411111111     0.870922222222     0.596866666667     0          
T        Si     0.702577777778     0.888888888889     0.666666666667     0          
T        Si     0.795744444444     0.997488888889     0.596866666667     0          
T        Si     0.777777777778     0.813688888889     0.666666666667     0          
T        Si     0.669177777778     0.798255555556     0.596866666667     0          
T        Si     0.852977777778     0.964088888889     0.666666666667     0          
T        Si     0.759811111111     0.979522222222     0.736466666667     0          
T        Si     0.687144444444     0.780288888889     0.736466666667     0          
T        Si     0.886377777778     0.906855555556     0.736466666667     0          
O        O      0.229633333333     0.313133333333     0.089600000000     0          
O        O      0.214633333333     0.032800000000     0.079300000000     0          
O        O      0.284633333333     0.048700000000     0.079900000000     0          
O        O      0.240766666667     0.010266666667     0.031000000000     0          
O        O      0.049833333333     0.099700000000     0.145500000000     0          
O        O      0.021266666667     0.042533333333     0.104100000000     0          
O        O      0.057933333333     0.115900000000     0.208300000000     0          
O        O      0.047433333333     0.158533333333     0.166700000000     0          
O        O      0.021266666667     0.042500000000     0.208100000000     0          
O        O      0.035166666667     0.298166666667     0.009100000000     0          
O        O      0.000000000000     0.000000000000     0.156100000000     0          
O        O      0.020200000000     0.249833333333     0.089600000000     0          
O        O      0.300533333333     0.181833333333     0.079300000000     0          
O        O      0.284633333333     0.235933333333     0.079900000000     0          
O        O      0.323066666667     0.230500000000     0.031000000000     0          
O        O      0.233633333333     0.283466666667     0.145500000000     0          
O        O      0.290800000000     0.312066666667     0.104100000000     0          
O        O      0.217433333333     0.275366666667     0.208300000000     0          
O        O      0.174800000000     0.222233333333     0.166700000000     0          
O        O      0.290833333333     0.312100000000     0.208100000000     0          
O        O      0.035166666667     0.070333333333     0.009100000000     0          
O        O      0.083500000000     0.103700000000     0.089600000000     0          
O        O      0.151500000000     0.118700000000     0.079300000000     0          
O        O      0.097400000000     0.048700000000     0.079900000000     0          
O        O      0.102833333333     0.092566666667     0.031000000000     0          
O        O      0.049866666667     0.283500000000     0.145500000000     0          
O        O      0.021266666667     0.312066666667     0.104100000000     0          
O        O      0.057966666667     0.275400000000     0.208300000000     0          
O        O      0.111100000000     0.285900000000     0.166700000000     0          
O        O      0.021233333333     0.312066666667     0.208100000000     0          
O        O      0.263000000000     0.298166666667     0.009100000000     0          
O        O      0.313133333333     0.229633333333     0.910400000000     0          
O        O      0.032800000000     0.214633333333     0.920700000000     0          
O        O      0.048700000000     0.284633333333     0.920100000000     0          
O        O      0.010266666667     0.240766666667     0.969000000000     0          
O        O      0.099700000000     0.049833333333     0.854500000000     0          
O        O      0.042533333333     0.021266666667     0.895900000000     0          
O        O      0.115900000000     0.057933333333     0.791700000000     0          
O        O      0.158533333333     0.047433333333     0.833300000000     0          
O        O      0.042500000000     0.021266666667     0.791900000000     0          
O        O      0.298166666667     0.035166666667     0.990900000000     0          
O        O      0.000000000000     0.000000000000     0.843900000000     0          
O        O      0.103700000000     0.083500000000     0.910400000000     0          
O        O      0.118700000000     0.151500000000     0.920700000000     0          
O        O      0.048700000000     0.097400000000     0.920100000000     0          
O        O      0.092566666667     0.102833333333     0.969000000000     0          
O        O      0.283500000000     0.049866666667     0.854500000000     0          
O        O      0.312066666667     0.021266666667     0.895900000000     0          
O        O      0.275400000000     0.057966666667     0.791700000000     0          
O        O      0.285900000000     0.111100000000     0.833300000000     0          
O        O      0.312066666667     0.021233333333     0.791900000000     0          
O        O      0.298166666667     0.263000000000     0.990900000000     0          
O        O      0.249833333333     0.020200000000     0.910400000000     0          
O        O      0.181833333333     0.300533333333     0.920700000000     0          
O        O      0.235933333333     0.284633333333     0.920100000000     0          
O        O      0.230500000000     0.323066666667     0.969000000000     0          
O        O      0.283466666667     0.233633333333     0.854500000000     0          
O        O      0.312066666667     0.290800000000     0.895900000000     0          
O        O      0.275366666667     0.217433333333     0.791700000000     0          
O        O      0.222233333333     0.174800000000     0.833300000000     0          
O        O      0.312100000000     0.290833333333     0.791900000000     0          
O        O      0.070333333333     0.035166666667     0.990900000000     0          
O        O      0.103700000000     0.020200000000     0.910400000000     0          
O        O      0.118700000000     0.300533333333     0.920700000000     0          
O        O      0.092566666667     0.323066666667     0.969000000000     0          
O        O      0.285900000000     0.174800000000     0.833300000000     0          
O        O      0.313133333333     0.083500000000     0.910400000000     0          
O        O      0.032800000000     0.151500000000     0.920700000000     0          
O        O      0.010266666667     0.102833333333     0.969000000000     0          
O        O      0.158533333333     0.111100000000     0.833300000000     0          
O        O      0.249833333333     0.229633333333     0.910400000000     0          
O        O      0.181833333333     0.214633333333     0.920700000000     0          
O        O      0.230500000000     0.240766666667     0.969000000000     0          
O        O      0.222233333333     0.047433333333     0.833300000000     0          
O        O      0.020200000000     0.103700000000     0.089600000000     0          
O        O      0.300533333333     0.118700000000     0.079300000000     0          
O        O      0.323066666667     0.092566666667     0.031000000000     0          
O        O      0.174800000000     0.285900000000     0.166700000000     0          
O        O      0.229633333333     0.249833333333     0.089600000000     0          
O        O      0.214633333333     0.181833333333     0.079300000000     0          
O        O      0.240766666667     0.230500000000     0.031000000000     0          
O        O      0.047433333333     0.222233333333     0.166700000000     0          
O        O      0.083500000000     0.313133333333     0.089600000000     0          
O        O      0.151500000000     0.032800000000     0.079300000000     0          
O        O      0.102833333333     0.010266666667     0.031000000000     0          
O        O      0.111100000000     0.158533333333     0.166700000000     0          
O        O      0.118522222222     0.090911111111     0.422933333333     0          
O        O      0.103522222222     0.143911111111     0.412633333333     0          
O        O      0.173522222222     0.159811111111     0.413233333333     0          
O        O      0.129655555556     0.121377777778     0.364333333333     0          
O        O      0.272055555556     0.210811111111     0.478833333333     0          
O        O      0.243488888889     0.153644444444     0.437433333333     0          
O        O      0.280155555556     0.227011111111     0.541633333333     0          
O        O      0.269655555556     0.269644444444     0.500033333333     0          
O        O      0.243488888889     0.153611111111     0.541433333333     0          
O        O      0.257388888889     0.075944444444     0.342433333333     0          
O        O      0.222222222222     0.111111111111     0.489433333333     0          
O        O      0.242422222222     0.027611111111     0.422933333333     0          
O        O      0.189422222222     0.292944444444     0.412633333333     0          
O        O      0.173522222222     0.013711111111     0.413233333333     0          
O        O      0.211955555556     0.008277777778     0.364333333333     0          
O        O      0.122522222222     0.061244444444     0.478833333333     0          
O        O      0.179688888889     0.089844444444     0.437433333333     0          
O        O      0.106322222222     0.053144444444     0.541633333333     0          
O        O      0.063688888889     0.000011111111     0.500033333333     0          
O        O      0.179722222222     0.089877777778     0.541433333333     0          
O        O      0.257388888889     0.181444444444     0.342433333333     0          
O        O      0.305722222222     0.214811111111     0.422933333333     0          
O        O      0.040388888889     0.229811111111     0.412633333333     0          
O        O      0.319622222222     0.159811111111     0.413233333333     0          
O        O      0.325055555556     0.203677777778     0.364333333333     0          
O        O      0.272088888889     0.061277777778     0.478833333333     0          
O        O      0.243488888889     0.089844444444     0.437433333333     0          
O        O      0.280188888889     0.053177777778     0.541633333333     0          
O        O      0.333322222222     0.063677777778     0.500033333333     0          
O        O      0.243455555556     0.089844444444     0.541433333333     0          
O        O      0.151888888889     0.075944444444     0.342433333333     0          
O        O      0.202022222222     0.007411111111     0.243733333333     0          
O        O      0.255022222222     0.325744444444     0.254033333333     0          
O        O      0.270922222222     0.062411111111     0.253433333333     0          
O        O      0.232488888889     0.018544444444     0.302333333333     0          
O        O      0.321922222222     0.160944444444     0.187833333333     0          
O        O      0.264755555556     0.132377777778     0.229233333333     0          
O        O      0.004788888889     0.169044444444     0.125033333333     0          
O        O      0.264722222222     0.132377777778     0.125233333333     0          
O        O      0.187055555556     0.146277777778     0.324233333333     0          
O        O      0.222222222222     0.111111111111     0.177233333333     0          
O        O      0.325922222222     0.194611111111     0.243733333333     0          
O        O      0.007588888889     0.262611111111     0.254033333333     0          
O        O      0.270922222222     0.208511111111     0.253433333333     0          
O        O      0.314788888889     0.213944444444     0.302333333333     0          
O        O      0.172388888889     0.160977777778     0.187833333333     0          
O        O      0.200955555556     0.132377777778     0.229233333333     0          
O        O      0.164288888889     0.169077777778     0.125033333333     0          
O        O      0.200955555556     0.132344444444     0.125233333333     0          
O        O      0.187055555556     0.040777777778     0.324233333333     0          
O        O      0.138722222222     0.131311111111     0.243733333333     0          
O        O      0.070722222222     0.078311111111     0.254033333333     0          
O        O      0.124822222222     0.062411111111     0.253433333333     0          
O        O      0.119388888889     0.100844444444     0.302333333333     0          
O        O      0.172355555556     0.011411111111     0.187833333333     0          
O        O      0.200955555556     0.068577777778     0.229233333333     0          
O        O      0.164255555556     0.328544444444     0.125033333333     0          
O        O      0.200988888889     0.068611111111     0.125233333333     0          
O        O      0.292555555556     0.146277777778     0.324233333333     0          
O        O      0.325922222222     0.131311111111     0.243733333333     0          
O        O      0.007588888889     0.078311111111     0.254033333333     0          
O        O      0.314788888889     0.100844444444     0.302333333333     0          
O        O      0.202022222222     0.194611111111     0.243733333333     0          
O        O      0.255022222222     0.262611111111     0.254033333333     0          
O        O      0.232488888889     0.213944444444     0.302333333333     0          
O        O      0.138722222222     0.007411111111     0.243733333333     0          
O        O      0.070722222222     0.325744444444     0.254033333333     0          
O        O      0.119388888889     0.018544444444     0.302333333333     0          
O        O      0.242422222222     0.214811111111     0.422933333333     0          
O        O      0.189422222222     0.229811111111     0.412633333333     0          
O        O      0.211955555556     0.203677777778     0.364333333333     0          
O        O      0.063688888889     0.063677777778     0.500033333333     0          
O        O      0.118522222222     0.027611111111     0.422933333333     0          
O        O      0.103522222222     0.292944444444     0.412633333333     0          
O        O      0.129655555556     0.008277777778     0.364333333333     0          
O        O      0.269655555556     0.000011111111     0.500033333333     0          
O        O      0.305722222222     0.090911111111     0.422933333333     0          
O        O      0.040388888889     0.143911111111     0.412633333333     0          
O        O      0.325055555556     0.121377777778     0.364333333333     0          
O        O      0.333322222222     0.269644444444     0.500033333333     0          
O        O      0.007411111111     0.202022222222     0.756266666667     0          
O        O      0.325744444444     0.255022222222     0.745966666667     0          
O        O      0.062411111111     0.270922222222     0.746566666667     0          
O        O      0.018544444444     0.232488888889     0.697666666667     0          
O        O      0.160944444444     0.321922222222     0.812166666667     0          
O        O      0.132377777778     0.264755555556     0.770766666667     0          
O        O      0.169044444444     0.004788888889     0.874966666667     0          
O        O      0.132377777778     0.264722222222     0.874766666667     0          
O        O      0.146277777778     0.187055555556     0.675766666667     0          
O        O      0.111111111111     0.222222222222     0.822766666667     0          
O        O      0.131311111111     0.138722222222     0.756266666667     0          
O        O      0.078311111111     0.070722222222     0.745966666667     0          
O        O      0.062411111111     0.124822222222     0.746566666667     0          
O        O      0.100844444444     0.119388888889     0.697666666667     0          
O        O      0.011411111111     0.172355555556     0.812166666667     0          
O        O      0.068577777778     0.200955555556     0.770766666667     0          
O        O      0.328544444444     0.164255555556     0.874966666667     0          
O        O      0.068611111111     0.200988888889     0.874766666667     0          
O        O      0.146277777778     0.292555555556     0.675766666667     0          
O        O      0.194611111111     0.325922222222     0.756266666667     0          
O        O      0.262611111111     0.007588888889     0.745966666667     0          
O        O      0.208511111111     0.270922222222     0.746566666667     0          
O        O      0.213944444444     0.314788888889     0.697666666667     0          
O        O      0.160977777778     0.172388888889     0.812166666667     0          
O        O      0.132377777778     0.200955555556     0.770766666667     0          
O        O      0.169077777778     0.164288888889     0.874966666667     0          
O        O      0.132344444444     0.200955555556     0.874766666667     0          
O        O      0.040777777778     0.187055555556     0.675766666667     0          
O        O      0.090911111111     0.118522222222     0.577066666667     0          
O        O      0.143911111111     0.103522222222     0.587366666667     0          
O        O      0.159811111111     0.173522222222     0.586766666667     0          
O        O      0.121377777778     0.129655555556     0.635666666667     0          
O        O      0.210811111111     0.272055555556     0.521166666667     0          
O        O      0.153644444444     0.243488888889     0.562566666667     0          
O        O      0.227011111111     0.280155555556     0.458366666667     0          
O        O      0.153611111111     0.243488888889     0.458566666667     0          
O        O      0.075944444444     0.257388888889     0.657566666667     0          
O        O      0.111111111111     0.222222222222     0.510566666667     0          
O        O      0.214811111111     0.305722222222     0.577066666667     0          
O        O      0.229811111111     0.040388888889     0.587366666667     0          
O        O      0.159811111111     0.319622222222     0.586766666667     0          
O        O      0.203677777778     0.325055555556     0.635666666667     0          
O        O      0.061277777778     0.272088888889     0.521166666667     0          
O        O      0.089844444444     0.243488888889     0.562566666667     0          
O        O      0.053177777778     0.280188888889     0.458366666667     0          
O        O      0.063677777778     0.333322222222     0.499966666667     0          
O        O      0.089844444444     0.243455555556     0.458566666667     0          
O        O      0.075944444444     0.151888888889     0.657566666667     0          
O        O      0.027611111111     0.242422222222     0.577066666667     0          
O        O      0.292944444444     0.189422222222     0.587366666667     0          
O        O      0.013711111111     0.173522222222     0.586766666667     0          
O        O      0.008277777778     0.211955555556     0.635666666667     0          
O        O      0.061244444444     0.122522222222     0.521166666667     0          
O        O      0.089844444444     0.179688888889     0.562566666667     0          
O        O      0.053144444444     0.106322222222     0.458366666667     0          
O        O      0.000011111111     0.063688888889     0.499966666667     0          
O        O      0.089877777778     0.179722222222     0.458566666667     0          
O        O      0.181444444444     0.257388888889     0.657566666667     0          
O        O      0.214811111111     0.242422222222     0.577066666667     0          
O        O      0.229811111111     0.189422222222     0.587366666667     0          
O        O      0.203677777778     0.211955555556     0.635666666667     0          
O        O      0.090911111111     0.305722222222     0.577066666667     0          
O        O      0.143911111111     0.040388888889     0.587366666667     0          
O        O      0.121377777778     0.325055555556     0.635666666667     0          
O        O      0.269644444444     0.333322222222     0.499966666667     0          
O        O      0.027611111111     0.118522222222     0.577066666667     0          
O        O      0.292944444444     0.103522222222     0.587366666667     0          
O        O      0.008277777778     0.129655555556     0.635666666667     0          
O        O      0.000011111111     0.269655555556     0.499966666667     0          
O        O      0.131311111111     0.325922222222     0.756266666667     0          
O        O      0.078311111111     0.007588888889     0.745966666667     0          
O        O      0.100844444444     0.314788888889     0.697666666667     0          
O        O      0.007411111111     0.138722222222     0.756266666667     0          
O        O      0.325744444444     0.070722222222     0.745966666667     0          
O        O      0.018544444444     0.119388888889     0.697666666667     0          
O        O      0.194611111111     0.202022222222     0.756266666667     0          
O        O      0.262611111111     0.255022222222     0.745966666667     0          
O        O      0.213944444444     0.232488888889     0.697666666667     0          
O        O      0.229633333333     0.646466666667     0.089600000000     0          
O        O      0.214633333333     0.366133333333     0.079300000000     0          
O        O      0.284633333333     0.382033333333     0.079900000000     0          
O        O      0.240766666667     0.343600000000     0.031000000000     0          
O        O      0.049833333333     0.433033333333     0.145500000000     0          
O        O      0.021266666667     0.375866666667     0.104100000000     0          
O        O      0.057933333333     0.449233333333     0.208300000000     0          
O        O      0.047433333333     0.491866666667     0.166700000000     0          
O        O      0.021266666667     0.375833333333     0.208100000000     0          
O        O      0.035166666667     0.631500000000     0.009100000000     0          
O        O      0.000000000000     0.333333333333     0.156100000000     0          
O        O      0.020200000000     0.583166666667     0.089600000000     0          
O        O      0.300533333333     0.515166666667     0.079300000000     0          
O        O      0.284633333333     0.569266666667     0.079900000000     0          
O        O      0.323066666667     0.563833333333     0.031000000000     0          
O        O      0.233633333333     0.616800000000     0.145500000000     0          
O        O      0.290800000000     0.645400000000     0.104100000000     0          
O        O      0.217433333333     0.608700000000     0.208300000000     0          
O        O      0.174800000000     0.555566666667     0.166700000000     0          
O        O      0.290833333333     0.645433333333     0.208100000000     0          
O        O      0.035166666667     0.403666666667     0.009100000000     0          
O        O      0.083500000000     0.437033333333     0.089600000000     0          
O        O      0.151500000000     0.452033333333     0.079300000000     0          
O        O      0.097400000000     0.382033333333     0.079900000000     0          
O        O      0.102833333333     0.425900000000     0.031000000000     0          
O        O      0.049866666667     0.616833333333     0.145500000000     0          
O        O      0.021266666667     0.645400000000     0.104100000000     0          
O        O      0.057966666667     0.608733333333     0.208300000000     0          
O        O      0.111100000000     0.619233333333     0.166700000000     0          
O        O      0.021233333333     0.645400000000     0.208100000000     0          
O        O      0.263000000000     0.631500000000     0.009100000000     0          
O        O      0.313133333333     0.562966666667     0.910400000000     0          
O        O      0.032800000000     0.547966666667     0.920700000000     0          
O        O      0.048700000000     0.617966666667     0.920100000000     0          
O        O      0.010266666667     0.574100000000     0.969000000000     0          
O        O      0.099700000000     0.383166666667     0.854500000000     0          
O        O      0.042533333333     0.354600000000     0.895900000000     0          
O        O      0.115900000000     0.391266666667     0.791700000000     0          
O        O      0.158533333333     0.380766666667     0.833300000000     0          
O        O      0.042500000000     0.354600000000     0.791900000000     0          
O        O      0.298166666667     0.368500000000     0.990900000000     0          
O        O      0.000000000000     0.333333333333     0.843900000000     0          
O        O      0.103700000000     0.416833333333     0.910400000000     0          
O        O      0.118700000000     0.484833333333     0.920700000000     0          
O        O      0.048700000000     0.430733333333     0.920100000000     0          
O        O      0.092566666667     0.436166666667     0.969000000000     0          
O        O      0.283500000000     0.383200000000     0.854500000000     0          
O        O      0.312066666667     0.354600000000     0.895900000000     0          
O        O      0.275400000000     0.391300000000     0.791700000000     0          
O        O      0.285900000000     0.444433333333     0.833300000000     0          
O        O      0.312066666667     0.354566666667     0.791900000000     0          
O        O      0.298166666667     0.596333333333     0.990900000000     0          
O        O      0.249833333333     0.353533333333     0.910400000000     0          
O        O      0.181833333333     0.633866666667     0.920700000000     0          
O        O      0.235933333333     0.617966666667     0.920100000000     0          
O        O      0.230500000000     0.656400000000     0.969000000000     0          
O        O      0.283466666667     0.566966666667     0.854500000000     0          
O        O      0.312066666667     0.624133333333     0.895900000000     0          
O        O      0.275366666667     0.550766666667     0.791700000000     0          
O        O      0.222233333333     0.508133333333     0.833300000000     0          
O        O      0.312100000000     0.624166666667     0.791900000000     0          
O        O      0.070333333333     0.368500000000     0.990900000000     0          
O        O      0.103700000000     0.353533333333     0.910400000000     0          
O        O      0.118700000000     0.633866666667     0.920700000000     0          
O        O      0.092566666667     0.656400000000     0.969000000000     0          
O        O      0.285900000000     0.508133333333     0.833300000000     0          
O        O      0.313133333333     0.416833333333     0.910400000000     0          
O        O      0.032800000000     0.484833333333     0.920700000000     0          
O        O      0.010266666667     0.436166666667     0.969000000000     0          
O        O      0.158533333333     0.444433333333     0.833300000000     0          
O        O      0.249833333333     0.562966666667     0.910400000000     0          
O        O      0.181833333333     0.547966666667     0.920700000000     0          
O        O      0.230500000000     0.574100000000     0.969000000000     0          
O        O      0.222233333333     0.380766666667     0.833300000000     0          
O        O      0.020200000000     0.437033333333     0.089600000000     0          
O        O      0.300533333333     0.452033333333     0.079300000000     0          
O        O      0.323066666667     0.425900000000     0.031000000000     0          
O        O      0.174800000000     0.619233333333     0.166700000000     0          
O        O      0.229633333333     0.583166666667     0.089600000000     0          
O        O      0.214633333333     0.515166666667     0.079300000000     0          
O        O      0.240766666667     0.563833333333     0.031000000000     0          
O        O      0.047433333333     0.555566666667     0.166700000000     0          
O        O      0.083500000000     0.646466666667     0.089600000000     0          
O        O      0.151500000000     0.366133333333     0.079300000000     0          
O        O      0.102833333333     0.343600000000     0.031000000000     0          
O        O      0.111100000000     0.491866666667     0.166700000000     0          
O        O      0.118522222222     0.424244444444     0.422933333333     0          
O        O      0.103522222222     0.477244444444     0.412633333333     0          
O        O      0.173522222222     0.493144444444     0.413233333333     0          
O        O      0.129655555556     0.454711111111     0.364333333333     0          
O        O      0.272055555556     0.544144444444     0.478833333333     0          
O        O      0.243488888889     0.486977777778     0.437433333333     0          
O        O      0.280155555556     0.560344444444     0.541633333333     0          
O        O      0.269655555556     0.602977777778     0.500033333333     0          
O        O      0.243488888889     0.486944444444     0.541433333333     0          
O        O      0.257388888889     0.409277777778     0.342433333333     0          
O        O      0.222222222222     0.444444444444     0.489433333333     0          
O        O      0.242422222222     0.360944444444     0.422933333333     0          
O        O      0.189422222222     0.626277777778     0.412633333333     0          
O        O      0.173522222222     0.347044444444     0.413233333333     0          
O        O      0.211955555556     0.341611111111     0.364333333333     0          
O        O      0.122522222222     0.394577777778     0.478833333333     0          
O        O      0.179688888889     0.423177777778     0.437433333333     0          
O        O      0.106322222222     0.386477777778     0.541633333333     0          
O        O      0.179722222222     0.423211111111     0.541433333333     0          
O        O      0.257388888889     0.514777777778     0.342433333333     0          
O        O      0.305722222222     0.548144444444     0.422933333333     0          
O        O      0.040388888889     0.563144444444     0.412633333333     0          
O        O      0.319622222222     0.493144444444     0.413233333333     0          
O        O      0.325055555556     0.537011111111     0.364333333333     0          
O        O      0.272088888889     0.394611111111     0.478833333333     0          
O        O      0.243488888889     0.423177777778     0.437433333333     0          
O        O      0.280188888889     0.386511111111     0.541633333333     0          
O        O      0.333322222222     0.397011111111     0.500033333333     0          
O        O      0.243455555556     0.423177777778     0.541433333333     0          
O        O      0.151888888889     0.409277777778     0.342433333333     0          
O        O      0.202022222222     0.340744444444     0.243733333333     0          
O        O      0.255022222222     0.659077777778     0.254033333333     0          
O        O      0.270922222222     0.395744444444     0.253433333333     0          
O        O      0.232488888889     0.351877777778     0.302333333333     0          
O        O      0.321922222222     0.494277777778     0.187833333333     0          
O        O      0.264755555556     0.465711111111     0.229233333333     0          
O        O      0.004788888889     0.502377777778     0.125033333333     0          
O        O      0.264722222222     0.465711111111     0.125233333333     0          
O        O      0.187055555556     0.479611111111     0.324233333333     0          
O        O      0.222222222222     0.444444444444     0.177233333333     0          
O        O      0.325922222222     0.527944444444     0.243733333333     0          
O        O      0.007588888889     0.595944444444     0.254033333333     0          
O        O      0.270922222222     0.541844444444     0.253433333333     0          
O        O      0.314788888889     0.547277777778     0.302333333333     0          
O        O      0.172388888889     0.494311111111     0.187833333333     0          
O        O      0.200955555556     0.465711111111     0.229233333333     0          
O        O      0.164288888889     0.502411111111     0.125033333333     0          
O        O      0.200955555556     0.465677777778     0.125233333333     0          
O        O      0.187055555556     0.374111111111     0.324233333333     0          
O        O      0.138722222222     0.464644444444     0.243733333333     0          
O        O      0.070722222222     0.411644444444     0.254033333333     0          
O        O      0.124822222222     0.395744444444     0.253433333333     0          
O        O      0.119388888889     0.434177777778     0.302333333333     0          
O        O      0.172355555556     0.344744444444     0.187833333333     0          
O        O      0.200955555556     0.401911111111     0.229233333333     0          
O        O      0.164255555556     0.661877777778     0.125033333333     0          
O        O      0.200988888889     0.401944444444     0.125233333333     0          
O        O      0.292555555556     0.479611111111     0.324233333333     0          
O        O      0.325922222222     0.464644444444     0.243733333333     0          
O        O      0.007588888889     0.411644444444     0.254033333333     0          
O        O      0.314788888889     0.434177777778     0.302333333333     0          
O        O      0.202022222222     0.527944444444     0.243733333333     0          
O        O      0.255022222222     0.595944444444     0.254033333333     0          
O        O      0.232488888889     0.547277777778     0.302333333333     0          
O        O      0.138722222222     0.340744444444     0.243733333333     0          
O        O      0.070722222222     0.659077777778     0.254033333333     0          
O        O      0.119388888889     0.351877777778     0.302333333333     0          
O        O      0.242422222222     0.548144444444     0.422933333333     0          
O        O      0.189422222222     0.563144444444     0.412633333333     0          
O        O      0.211955555556     0.537011111111     0.364333333333     0          
O        O      0.063688888889     0.397011111111     0.500033333333     0          
O        O      0.118522222222     0.360944444444     0.422933333333     0          
O        O      0.103522222222     0.626277777778     0.412633333333     0          
O        O      0.129655555556     0.341611111111     0.364333333333     0          
O        O      0.305722222222     0.424244444444     0.422933333333     0          
O        O      0.040388888889     0.477244444444     0.412633333333     0          
O        O      0.325055555556     0.454711111111     0.364333333333     0          
O        O      0.333322222222     0.602977777778     0.500033333333     0          
O        O      0.007411111111     0.535355555556     0.756266666667     0          
O        O      0.325744444444     0.588355555556     0.745966666667     0          
O        O      0.062411111111     0.604255555556     0.746566666667     0          
O        O      0.018544444444     0.565822222222     0.697666666667     0          
O        O      0.160944444444     0.655255555556     0.812166666667     0          
O        O      0.132377777778     0.598088888889     0.770766666667     0          
O        O      0.169044444444     0.338122222222     0.874966666667     0          
O        O      0.132377777778     0.598055555556     0.874766666667     0          
O        O      0.146277777778     0.520388888889     0.675766666667     0          
O        O      0.111111111111     0.555555555556     0.822766666667     0          
O        O      0.131311111111     0.472055555556     0.756266666667     0          
O        O      0.078311111111     0.404055555556     0.745966666667     0          
O        O      0.062411111111     0.458155555556     0.746566666667     0          
O        O      0.100844444444     0.452722222222     0.697666666667     0          
O        O      0.011411111111     0.505688888889     0.812166666667     0          
O        O      0.068577777778     0.534288888889     0.770766666667     0          
O        O      0.328544444444     0.497588888889     0.874966666667     0          
O        O      0.068611111111     0.534322222222     0.874766666667     0          
O        O      0.146277777778     0.625888888889     0.675766666667     0          
O        O      0.194611111111     0.659255555556     0.756266666667     0          
O        O      0.262611111111     0.340922222222     0.745966666667     0          
O        O      0.208511111111     0.604255555556     0.746566666667     0          
O        O      0.213944444444     0.648122222222     0.697666666667     0          
O        O      0.160977777778     0.505722222222     0.812166666667     0          
O        O      0.132377777778     0.534288888889     0.770766666667     0          
O        O      0.169077777778     0.497622222222     0.874966666667     0          
O        O      0.132344444444     0.534288888889     0.874766666667     0          
O        O      0.040777777778     0.520388888889     0.675766666667     0          
O        O      0.090911111111     0.451855555556     0.577066666667     0          
O        O      0.143911111111     0.436855555556     0.587366666667     0          
O        O      0.159811111111     0.506855555556     0.586766666667     0          
O        O      0.121377777778     0.462988888889     0.635666666667     0          
O        O      0.210811111111     0.605388888889     0.521166666667     0          
O        O      0.153644444444     0.576822222222     0.562566666667     0          
O        O      0.227011111111     0.613488888889     0.458366666667     0          
O        O      0.153611111111     0.576822222222     0.458566666667     0          
O        O      0.075944444444     0.590722222222     0.657566666667     0          
O        O      0.111111111111     0.555555555556     0.510566666667     0          
O        O      0.214811111111     0.639055555556     0.577066666667     0          
O        O      0.229811111111     0.373722222222     0.587366666667     0          
O        O      0.159811111111     0.652955555556     0.586766666667     0          
O        O      0.203677777778     0.658388888889     0.635666666667     0          
O        O      0.061277777778     0.605422222222     0.521166666667     0          
O        O      0.089844444444     0.576822222222     0.562566666667     0          
O        O      0.053177777778     0.613522222222     0.458366666667     0          
O        O      0.063677777778     0.666655555556     0.499966666667     0          
O        O      0.089844444444     0.576788888889     0.458566666667     0          
O        O      0.075944444444     0.485222222222     0.657566666667     0          
O        O      0.027611111111     0.575755555556     0.577066666667     0          
O        O      0.292944444444     0.522755555556     0.587366666667     0          
O        O      0.013711111111     0.506855555556     0.586766666667     0          
O        O      0.008277777778     0.545288888889     0.635666666667     0          
O        O      0.061244444444     0.455855555556     0.521166666667     0          
O        O      0.089844444444     0.513022222222     0.562566666667     0          
O        O      0.053144444444     0.439655555556     0.458366666667     0          
O        O      0.000011111111     0.397022222222     0.499966666667     0          
O        O      0.089877777778     0.513055555556     0.458566666667     0          
O        O      0.181444444444     0.590722222222     0.657566666667     0          
O        O      0.214811111111     0.575755555556     0.577066666667     0          
O        O      0.229811111111     0.522755555556     0.587366666667     0          
O        O      0.203677777778     0.545288888889     0.635666666667     0          
O        O      0.090911111111     0.639055555556     0.577066666667     0          
O        O      0.143911111111     0.373722222222     0.587366666667     0          
O        O      0.121377777778     0.658388888889     0.635666666667     0          
O        O      0.269644444444     0.666655555556     0.499966666667     0          
O        O      0.027611111111     0.451855555556     0.577066666667     0          
O        O      0.292944444444     0.436855555556     0.587366666667     0          
O        O      0.008277777778     0.462988888889     0.635666666667     0          
O        O      0.000011111111     0.602988888889     0.499966666667     0          
O        O      0.131311111111     0.659255555556     0.756266666667     0          
O        O      0.078311111111     0.340922222222     0.745966666667     0          
O        O      0.100844444444     0.648122222222     0.697666666667     0          
O        O      0.007411111111     0.472055555556     0.756266666667     0          
O        O      0.325744444444     0.404055555556     0.745966666667     0          
O        O      0.018544444444     0.452722222222     0.697666666667     0          
O        O      0.194611111111     0.535355555556     0.756266666667     0          
O        O      0.262611111111     0.588355555556     0.745966666667     0          
O        O      0.213944444444     0.565822222222     0.697666666667     0          
O        O      0.229633333333     0.979800000000     0.089600000000     0          
O        O      0.214633333333     0.699466666667     0.079300000000     0          
O        O      0.284633333333     0.715366666667     0.079900000000     0          
O        O      0.240766666667     0.676933333333     0.031000000000     0          
O        O      0.049833333333     0.766366666667     0.145500000000     0          
O        O      0.021266666667     0.709200000000     0.104100000000     0          
O        O      0.057933333333     0.782566666667     0.208300000000     0          
O        O      0.047433333333     0.825200000000     0.166700000000     0          
O        O      0.021266666667     0.709166666667     0.208100000000     0          
O        O      0.035166666667     0.964833333333     0.009100000000     0          
O        O      0.000000000000     0.666666666667     0.156100000000     0          
O        O      0.020200000000     0.916500000000     0.089600000000     0          
O        O      0.300533333333     0.848500000000     0.079300000000     0          
O        O      0.284633333333     0.902600000000     0.079900000000     0          
O        O      0.323066666667     0.897166666667     0.031000000000     0          
O        O      0.233633333333     0.950133333333     0.145500000000     0          
O        O      0.290800000000     0.978733333333     0.104100000000     0          
O        O      0.217433333333     0.942033333333     0.208300000000     0          
O        O      0.174800000000     0.888900000000     0.166700000000     0          
O        O      0.290833333333     0.978766666667     0.208100000000     0          
O        O      0.035166666667     0.737000000000     0.009100000000     0          
O        O      0.083500000000     0.770366666667     0.089600000000     0          
O        O      0.151500000000     0.785366666667     0.079300000000     0          
O        O      0.097400000000     0.715366666667     0.079900000000     0          
O        O      0.102833333333     0.759233333333     0.031000000000     0          
O        O      0.049866666667     0.950166666667     0.145500000000     0          
O        O      0.021266666667     0.978733333333     0.104100000000     0          
O        O      0.057966666667     0.942066666667     0.208300000000     0          
O        O      0.111100000000     0.952566666667     0.166700000000     0          
O        O      0.021233333333     0.978733333333     0.208100000000     0          
O        O      0.263000000000     0.964833333333     0.009100000000     0          
O        O      0.313133333333     0.896300000000     0.910400000000     0          
O        O      0.032800000000     0.881300000000     0.920700000000     0          
O        O      0.048700000000     0.951300000000     0.920100000000     0          
O        O      0.010266666667     0.907433333333     0.969000000000     0          
O        O      0.099700000000     0.716500000000     0.854500000000     0          
O        O      0.042533333333     0.687933333333     0.895900000000     0          
O        O      0.115900000000     0.724600000000     0.791700000000     0          
O        O      0.158533333333     0.714100000000     0.833300000000     0          
O        O      0.042500000000     0.687933333333     0.791900000000     0          
O        O      0.298166666667     0.701833333333     0.990900000000     0          
O        O      0.000000000000     0.666666666667     0.843900000000     0          
O        O      0.103700000000     0.750166666667     0.910400000000     0          
O        O      0.118700000000     0.818166666667     0.920700000000     0          
O        O      0.048700000000     0.764066666667     0.920100000000     0          
O        O      0.092566666667     0.769500000000     0.969000000000     0          
O        O      0.283500000000     0.716533333333     0.854500000000     0          
O        O      0.312066666667     0.687933333333     0.895900000000     0          
O        O      0.275400000000     0.724633333333     0.791700000000     0          
O        O      0.285900000000     0.777766666667     0.833300000000     0          
O        O      0.312066666667     0.687900000000     0.791900000000     0          
O        O      0.298166666667     0.929666666667     0.990900000000     0          
O        O      0.249833333333     0.686866666667     0.910400000000     0          
O        O      0.181833333333     0.967200000000     0.920700000000     0          
O        O      0.235933333333     0.951300000000     0.920100000000     0          
O        O      0.230500000000     0.989733333333     0.969000000000     0          
O        O      0.283466666667     0.900300000000     0.854500000000     0          
O        O      0.312066666667     0.957466666667     0.895900000000     0          
O        O      0.275366666667     0.884100000000     0.791700000000     0          
O        O      0.222233333333     0.841466666667     0.833300000000     0          
O        O      0.312100000000     0.957500000000     0.791900000000     0          
O        O      0.070333333333     0.701833333333     0.990900000000     0          
O        O      0.103700000000     0.686866666667     0.910400000000     0          
O        O      0.118700000000     0.967200000000     0.920700000000     0          
O        O      0.092566666667     0.989733333333     0.969000000000     0          
O        O      0.285900000000     0.841466666667     0.833300000000     0          
O        O      0.313133333333     0.750166666667     0.910400000000     0          
O        O      0.032800000000     0.818166666667     0.920700000000     0          
O        O      0.010266666667     0.769500000000     0.969000000000     0          
O        O      0.158533333333     0.777766666667     0.833300000000     0          
O        O      0.249833333333     0.896300000000     0.910400000000     0          
O        O      0.181833333333     0.881300000000     0.920700000000     0          
O        O      0.230500000000     0.907433333333     0.969000000000     0          
O        O      0.222233333333     0.714100000000     0.833300000000     0          
O        O      0.020200000000     0.770366666667     0.089600000000     0          
O        O      0.300533333333     0.785366666667     0.079300000000     0          
O        O      0.323066666667     0.759233333333     0.031000000000     0          
O        O      0.174800000000     0.952566666667     0.166700000000     0          
O        O      0.229633333333     0.916500000000     0.089600000000     0          
O        O      0.214633333333     0.848500000000     0.079300000000     0          
O        O      0.240766666667     0.897166666667     0.031000000000     0          
O        O      0.047433333333     0.888900000000     0.166700000000     0          
O        O      0.083500000000     0.979800000000     0.089600000000     0          
O        O      0.151500000000     0.699466666667     0.079300000000     0          
O        O      0.102833333333     0.676933333333     0.031000000000     0          
O        O      0.111100000000     0.825200000000     0.166700000000     0          
O        O      0.118522222222     0.757577777778     0.422933333333     0          
O        O      0.103522222222     0.810577777778     0.412633333333     0          
O        O      0.173522222222     0.826477777778     0.413233333333     0          
O        O      0.129655555556     0.788044444444     0.364333333333     0          
O        O      0.272055555556     0.877477777778     0.478833333333     0          
O        O      0.243488888889     0.820311111111     0.437433333333     0          
O        O      0.280155555556     0.893677777778     0.541633333333     0          
O        O      0.269655555556     0.936311111111     0.500033333333     0          
O        O      0.243488888889     0.820277777778     0.541433333333     0          
O        O      0.257388888889     0.742611111111     0.342433333333     0          
O        O      0.222222222222     0.777777777778     0.489433333333     0          
O        O      0.242422222222     0.694277777778     0.422933333333     0          
O        O      0.189422222222     0.959611111111     0.412633333333     0          
O        O      0.173522222222     0.680377777778     0.413233333333     0          
O        O      0.211955555556     0.674944444444     0.364333333333     0          
O        O      0.122522222222     0.727911111111     0.478833333333     0          
O        O      0.179688888889     0.756511111111     0.437433333333     0          
O        O      0.106322222222     0.719811111111     0.541633333333     0          
O        O      0.179722222222     0.756544444444     0.541433333333     0          
O        O      0.257388888889     0.848111111111     0.342433333333     0          
O        O      0.305722222222     0.881477777778     0.422933333333     0          
O        O      0.040388888889     0.896477777778     0.412633333333     0          
O        O      0.319622222222     0.826477777778     0.413233333333     0          
O        O      0.325055555556     0.870344444444     0.364333333333     0          
O        O      0.272088888889     0.727944444444     0.478833333333     0          
O        O      0.243488888889     0.756511111111     0.437433333333     0          
O        O      0.280188888889     0.719844444444     0.541633333333     0          
O        O      0.333322222222     0.730344444444     0.500033333333     0          
O        O      0.243455555556     0.756511111111     0.541433333333     0          
O        O      0.151888888889     0.742611111111     0.342433333333     0          
O        O      0.202022222222     0.674077777778     0.243733333333     0          
O        O      0.255022222222     0.992411111111     0.254033333333     0          
O        O      0.270922222222     0.729077777778     0.253433333333     0          
O        O      0.232488888889     0.685211111111     0.302333333333     0          
O        O      0.321922222222     0.827611111111     0.187833333333     0          
O        O      0.264755555556     0.799044444444     0.229233333333     0          
O        O      0.004788888889     0.835711111111     0.125033333333     0          
O        O      0.264722222222     0.799044444444     0.125233333333     0          
O        O      0.187055555556     0.812944444444     0.324233333333     0          
O        O      0.222222222222     0.777777777778     0.177233333333     0          
O        O      0.325922222222     0.861277777778     0.243733333333     0          
O        O      0.007588888889     0.929277777778     0.254033333333     0          
O        O      0.270922222222     0.875177777778     0.253433333333     0          
O        O      0.314788888889     0.880611111111     0.302333333333     0          
O        O      0.172388888889     0.827644444444     0.187833333333     0          
O        O      0.200955555556     0.799044444444     0.229233333333     0          
O        O      0.164288888889     0.835744444444     0.125033333333     0          
O        O      0.200955555556     0.799011111111     0.125233333333     0          
O        O      0.187055555556     0.707444444444     0.324233333333     0          
O        O      0.138722222222     0.797977777778     0.243733333333     0          
O        O      0.070722222222     0.744977777778     0.254033333333     0          
O        O      0.124822222222     0.729077777778     0.253433333333     0          
O        O      0.119388888889     0.767511111111     0.302333333333     0          
O        O      0.172355555556     0.678077777778     0.187833333333     0          
O        O      0.200955555556     0.735244444444     0.229233333333     0          
O        O      0.164255555556     0.995211111111     0.125033333333     0          
O        O      0.200988888889     0.735277777778     0.125233333333     0          
O        O      0.292555555556     0.812944444444     0.324233333333     0          
O        O      0.325922222222     0.797977777778     0.243733333333     0          
O        O      0.007588888889     0.744977777778     0.254033333333     0          
O        O      0.314788888889     0.767511111111     0.302333333333     0          
O        O      0.202022222222     0.861277777778     0.243733333333     0          
O        O      0.255022222222     0.929277777778     0.254033333333     0          
O        O      0.232488888889     0.880611111111     0.302333333333     0          
O        O      0.138722222222     0.674077777778     0.243733333333     0          
O        O      0.070722222222     0.992411111111     0.254033333333     0          
O        O      0.119388888889     0.685211111111     0.302333333333     0          
O        O      0.242422222222     0.881477777778     0.422933333333     0          
O        O      0.189422222222     0.896477777778     0.412633333333     0          
O        O      0.211955555556     0.870344444444     0.364333333333     0          
O        O      0.063688888889     0.730344444444     0.500033333333     0          
O        O      0.118522222222     0.694277777778     0.422933333333     0          
O        O      0.103522222222     0.959611111111     0.412633333333     0          
O        O      0.129655555556     0.674944444444     0.364333333333     0          
O        O      0.305722222222     0.757577777778     0.422933333333     0          
O        O      0.040388888889     0.810577777778     0.412633333333     0          
O        O      0.325055555556     0.788044444444     0.364333333333     0          
O        O      0.333322222222     0.936311111111     0.500033333333     0          
O        O      0.007411111111     0.868688888889     0.756266666667     0          
O        O      0.325744444444     0.921688888889     0.745966666667     0          
O        O      0.062411111111     0.937588888889     0.746566666667     0          
O        O      0.018544444444     0.899155555556     0.697666666667     0          
O        O      0.160944444444     0.988588888889     0.812166666667     0          
O        O      0.132377777778     0.931422222222     0.770766666667     0          
O        O      0.169044444444     0.671455555556     0.874966666667     0          
O        O      0.132377777778     0.931388888889     0.874766666667     0          
O        O      0.146277777778     0.853722222222     0.675766666667     0          
O        O      0.111111111111     0.888888888889     0.822766666667     0          
O        O      0.131311111111     0.805388888889     0.756266666667     0          
O        O      0.078311111111     0.737388888889     0.745966666667     0          
O        O      0.062411111111     0.791488888889     0.746566666667     0          
O        O      0.100844444444     0.786055555556     0.697666666667     0          
O        O      0.011411111111     0.839022222222     0.812166666667     0          
O        O      0.068577777778     0.867622222222     0.770766666667     0          
O        O      0.328544444444     0.830922222222     0.874966666667     0          
O        O      0.068611111111     0.867655555556     0.874766666667     0          
O        O      0.146277777778     0.959222222222     0.675766666667     0          
O        O      0.194611111111     0.992588888889     0.756266666667     0          
O        O      0.262611111111     0.674255555556     0.745966666667     0          
O        O      0.208511111111     0.937588888889     0.746566666667     0          
O        O      0.213944444444     0.981455555556     0.697666666667     0          
O        O      0.160977777778     0.839055555556     0.812166666667     0          
O        O      0.132377777778     0.867622222222     0.770766666667     0          
O        O      0.169077777778     0.830955555556     0.874966666667     0          
O        O      0.132344444444     0.867622222222     0.874766666667     0          
O        O      0.040777777778     0.853722222222     0.675766666667     0          
O        O      0.090911111111     0.785188888889     0.577066666667     0          
O        O      0.143911111111     0.770188888889     0.587366666667     0          
O        O      0.159811111111     0.840188888889     0.586766666667     0          
O        O      0.121377777778     0.796322222222     0.635666666667     0          
O        O      0.210811111111     0.938722222222     0.521166666667     0          
O        O      0.153644444444     0.910155555556     0.562566666667     0          
O        O      0.227011111111     0.946822222222     0.458366666667     0          
O        O      0.153611111111     0.910155555556     0.458566666667     0          
O        O      0.075944444444     0.924055555556     0.657566666667     0          
O        O      0.111111111111     0.888888888889     0.510566666667     0          
O        O      0.214811111111     0.972388888889     0.577066666667     0          
O        O      0.229811111111     0.707055555556     0.587366666667     0          
O        O      0.159811111111     0.986288888889     0.586766666667     0          
O        O      0.203677777778     0.991722222222     0.635666666667     0          
O        O      0.061277777778     0.938755555556     0.521166666667     0          
O        O      0.089844444444     0.910155555556     0.562566666667     0          
O        O      0.053177777778     0.946855555556     0.458366666667     0          
O        O      0.089844444444     0.910122222222     0.458566666667     0          
O        O      0.075944444444     0.818555555556     0.657566666667     0          
O        O      0.027611111111     0.909088888889     0.577066666667     0          
O        O      0.292944444444     0.856088888889     0.587366666667     0          
O        O      0.013711111111     0.840188888889     0.586766666667     0          
O        O      0.008277777778     0.878622222222     0.635666666667     0          
O        O      0.061244444444     0.789188888889     0.521166666667     0          
O        O      0.089844444444     0.846355555556     0.562566666667     0          
O        O      0.053144444444     0.772988888889     0.458366666667     0          
O        O      0.000011111111     0.730355555556     0.499966666667     0          
O        O      0.089877777778     0.846388888889     0.458566666667     0          
O        O      0.181444444444     0.924055555556     0.657566666667     0          
O        O      0.214811111111     0.909088888889     0.577066666667     0          
O        O      0.229811111111     0.856088888889     0.587366666667     0          
O        O      0.203677777778     0.878622222222     0.635666666667     0          
O        O      0.090911111111     0.972388888889     0.577066666667     0          
O        O      0.143911111111     0.707055555556     0.587366666667     0          
O        O      0.121377777778     0.991722222222     0.635666666667     0          
O        O      0.027611111111     0.785188888889     0.577066666667     0          
O        O      0.292944444444     0.770188888889     0.587366666667     0          
O        O      0.008277777778     0.796322222222     0.635666666667     0          
O        O      0.000011111111     0.936322222222     0.499966666667     0          
O        O      0.131311111111     0.992588888889     0.756266666667     0          
O        O      0.078311111111     0.674255555556     0.745966666667     0          
O        O      0.100844444444     0.981455555556     0.697666666667     0          
O        O      0.007411111111     0.805388888889     0.756266666667     0          
O        O      0.325744444444     0.737388888889     0.745966666667     0          
O        O      0.018544444444     0.786055555556     0.697666666667     0          
O        O      0.194611111111     0.868688888889     0.756266666667     0          
O        O      0.262611111111     0.921688888889     0.745966666667     0          
O        O      0.213944444444     0.899155555556     0.697666666667     0          
O        O      0.562966666667     0.313133333333     0.089600000000     0          
O        O      0.547966666667     0.032800000000     0.079300000000     0          
O        O      0.617966666667     0.048700000000     0.079900000000     0          
O        O      0.574100000000     0.010266666667     0.031000000000     0          
O        O      0.383166666667     0.099700000000     0.145500000000     0          
O        O      0.354600000000     0.042533333333     0.104100000000     0          
O        O      0.391266666667     0.115900000000     0.208300000000     0          
O        O      0.380766666667     0.158533333333     0.166700000000     0          
O        O      0.354600000000     0.042500000000     0.208100000000     0          
O        O      0.368500000000     0.298166666667     0.009100000000     0          
O        O      0.333333333333     0.000000000000     0.156100000000     0          
O        O      0.353533333333     0.249833333333     0.089600000000     0          
O        O      0.633866666667     0.181833333333     0.079300000000     0          
O        O      0.617966666667     0.235933333333     0.079900000000     0          
O        O      0.656400000000     0.230500000000     0.031000000000     0          
O        O      0.566966666667     0.283466666667     0.145500000000     0          
O        O      0.624133333333     0.312066666667     0.104100000000     0          
O        O      0.550766666667     0.275366666667     0.208300000000     0          
O        O      0.508133333333     0.222233333333     0.166700000000     0          
O        O      0.624166666667     0.312100000000     0.208100000000     0          
O        O      0.368500000000     0.070333333333     0.009100000000     0          
O        O      0.416833333333     0.103700000000     0.089600000000     0          
O        O      0.484833333333     0.118700000000     0.079300000000     0          
O        O      0.430733333333     0.048700000000     0.079900000000     0          
O        O      0.436166666667     0.092566666667     0.031000000000     0          
O        O      0.383200000000     0.283500000000     0.145500000000     0          
O        O      0.354600000000     0.312066666667     0.104100000000     0          
O        O      0.391300000000     0.275400000000     0.208300000000     0          
O        O      0.444433333333     0.285900000000     0.166700000000     0          
O        O      0.354566666667     0.312066666667     0.208100000000     0          
O        O      0.596333333333     0.298166666667     0.009100000000     0          
O        O      0.646466666667     0.229633333333     0.910400000000     0          
O        O      0.366133333333     0.214633333333     0.920700000000     0          
O        O      0.382033333333     0.284633333333     0.920100000000     0          
O        O      0.343600000000     0.240766666667     0.969000000000     0          
O        O      0.433033333333     0.049833333333     0.854500000000     0          
O        O      0.375866666667     0.021266666667     0.895900000000     0          
O        O      0.449233333333     0.057933333333     0.791700000000     0          
O        O      0.491866666667     0.047433333333     0.833300000000     0          
O        O      0.375833333333     0.021266666667     0.791900000000     0          
O        O      0.631500000000     0.035166666667     0.990900000000     0          
O        O      0.333333333333     0.000000000000     0.843900000000     0          
O        O      0.437033333333     0.083500000000     0.910400000000     0          
O        O      0.452033333333     0.151500000000     0.920700000000     0          
O        O      0.382033333333     0.097400000000     0.920100000000     0          
O        O      0.425900000000     0.102833333333     0.969000000000     0          
O        O      0.616833333333     0.049866666667     0.854500000000     0          
O        O      0.645400000000     0.021266666667     0.895900000000     0          
O        O      0.608733333333     0.057966666667     0.791700000000     0          
O        O      0.619233333333     0.111100000000     0.833300000000     0          
O        O      0.645400000000     0.021233333333     0.791900000000     0          
O        O      0.631500000000     0.263000000000     0.990900000000     0          
O        O      0.583166666667     0.020200000000     0.910400000000     0          
O        O      0.515166666667     0.300533333333     0.920700000000     0          
O        O      0.569266666667     0.284633333333     0.920100000000     0          
O        O      0.563833333333     0.323066666667     0.969000000000     0          
O        O      0.616800000000     0.233633333333     0.854500000000     0          
O        O      0.645400000000     0.290800000000     0.895900000000     0          
O        O      0.608700000000     0.217433333333     0.791700000000     0          
O        O      0.555566666667     0.174800000000     0.833300000000     0          
O        O      0.645433333333     0.290833333333     0.791900000000     0          
O        O      0.403666666667     0.035166666667     0.990900000000     0          
O        O      0.437033333333     0.020200000000     0.910400000000     0          
O        O      0.452033333333     0.300533333333     0.920700000000     0          
O        O      0.425900000000     0.323066666667     0.969000000000     0          
O        O      0.619233333333     0.174800000000     0.833300000000     0          
O        O      0.646466666667     0.083500000000     0.910400000000     0          
O        O      0.366133333333     0.151500000000     0.920700000000     0          
O        O      0.343600000000     0.102833333333     0.969000000000     0          
O        O      0.491866666667     0.111100000000     0.833300000000     0          
O        O      0.583166666667     0.229633333333     0.910400000000     0          
O        O      0.515166666667     0.214633333333     0.920700000000     0          
O        O      0.563833333333     0.240766666667     0.969000000000     0          
O        O      0.555566666667     0.047433333333     0.833300000000     0          
O        O      0.353533333333     0.103700000000     0.089600000000     0          
O        O      0.633866666667     0.118700000000     0.079300000000     0          
O        O      0.656400000000     0.092566666667     0.031000000000     0          
O        O      0.508133333333     0.285900000000     0.166700000000     0          
O        O      0.562966666667     0.249833333333     0.089600000000     0          
O        O      0.547966666667     0.181833333333     0.079300000000     0          
O        O      0.574100000000     0.230500000000     0.031000000000     0          
O        O      0.380766666667     0.222233333333     0.166700000000     0          
O        O      0.416833333333     0.313133333333     0.089600000000     0          
O        O      0.484833333333     0.032800000000     0.079300000000     0          
O        O      0.436166666667     0.010266666667     0.031000000000     0          
O        O      0.444433333333     0.158533333333     0.166700000000     0          
O        O      0.451855555556     0.090911111111     0.422933333333     0          
O        O      0.436855555556     0.143911111111     0.412633333333     0          
O        O      0.506855555556     0.159811111111     0.413233333333     0          
O        O      0.462988888889     0.121377777778     0.364333333333     0          
O        O      0.605388888889     0.210811111111     0.478833333333     0          
O        O      0.576822222222     0.153644444444     0.437433333333     0          
O        O      0.613488888889     0.227011111111     0.541633333333     0          
O        O      0.602988888889     0.269644444444     0.500033333333     0          
O        O      0.576822222222     0.153611111111     0.541433333333     0          
O        O      0.590722222222     0.075944444444     0.342433333333     0          
O        O      0.555555555556     0.111111111111     0.489433333333     0          
O        O      0.575755555556     0.027611111111     0.422933333333     0          
O        O      0.522755555556     0.292944444444     0.412633333333     0          
O        O      0.506855555556     0.013711111111     0.413233333333     0          
O        O      0.545288888889     0.008277777778     0.364333333333     0          
O        O      0.455855555556     0.061244444444     0.478833333333     0          
O        O      0.513022222222     0.089844444444     0.437433333333     0          
O        O      0.439655555556     0.053144444444     0.541633333333     0          
O        O      0.397022222222     0.000011111111     0.500033333333     0          
O        O      0.513055555556     0.089877777778     0.541433333333     0          
O        O      0.590722222222     0.181444444444     0.342433333333     0          
O        O      0.639055555556     0.214811111111     0.422933333333     0          
O        O      0.373722222222     0.229811111111     0.412633333333     0          
O        O      0.652955555556     0.159811111111     0.413233333333     0          
O        O      0.658388888889     0.203677777778     0.364333333333     0          
O        O      0.605422222222     0.061277777778     0.478833333333     0          
O        O      0.576822222222     0.089844444444     0.437433333333     0          
O        O      0.613522222222     0.053177777778     0.541633333333     0          
O        O      0.666655555556     0.063677777778     0.500033333333     0          
O        O      0.576788888889     0.089844444444     0.541433333333     0          
O        O      0.485222222222     0.075944444444     0.342433333333     0          
O        O      0.535355555556     0.007411111111     0.243733333333     0          
O        O      0.588355555556     0.325744444444     0.254033333333     0          
O        O      0.604255555556     0.062411111111     0.253433333333     0          
O        O      0.565822222222     0.018544444444     0.302333333333     0          
O        O      0.655255555556     0.160944444444     0.187833333333     0          
O        O      0.598088888889     0.132377777778     0.229233333333     0          
O        O      0.338122222222     0.169044444444     0.125033333333     0          
O        O      0.598055555556     0.132377777778     0.125233333333     0          
O        O      0.520388888889     0.146277777778     0.324233333333     0          
O        O      0.555555555556     0.111111111111     0.177233333333     0          
O        O      0.659255555556     0.194611111111     0.243733333333     0          
O        O      0.340922222222     0.262611111111     0.254033333333     0          
O        O      0.604255555556     0.208511111111     0.253433333333     0          
O        O      0.648122222222     0.213944444444     0.302333333333     0          
O        O      0.505722222222     0.160977777778     0.187833333333     0          
O        O      0.534288888889     0.132377777778     0.229233333333     0          
O        O      0.497622222222     0.169077777778     0.125033333333     0          
O        O      0.534288888889     0.132344444444     0.125233333333     0          
O        O      0.520388888889     0.040777777778     0.324233333333     0          
O        O      0.472055555556     0.131311111111     0.243733333333     0          
O        O      0.404055555556     0.078311111111     0.254033333333     0          
O        O      0.458155555556     0.062411111111     0.253433333333     0          
O        O      0.452722222222     0.100844444444     0.302333333333     0          
O        O      0.505688888889     0.011411111111     0.187833333333     0          
O        O      0.534288888889     0.068577777778     0.229233333333     0          
O        O      0.497588888889     0.328544444444     0.125033333333     0          
O        O      0.534322222222     0.068611111111     0.125233333333     0          
O        O      0.625888888889     0.146277777778     0.324233333333     0          
O        O      0.659255555556     0.131311111111     0.243733333333     0          
O        O      0.340922222222     0.078311111111     0.254033333333     0          
O        O      0.648122222222     0.100844444444     0.302333333333     0          
O        O      0.535355555556     0.194611111111     0.243733333333     0          
O        O      0.588355555556     0.262611111111     0.254033333333     0          
O        O      0.565822222222     0.213944444444     0.302333333333     0          
O        O      0.472055555556     0.007411111111     0.243733333333     0          
O        O      0.404055555556     0.325744444444     0.254033333333     0          
O        O      0.452722222222     0.018544444444     0.302333333333     0          
O        O      0.575755555556     0.214811111111     0.422933333333     0          
O        O      0.522755555556     0.229811111111     0.412633333333     0          
O        O      0.545288888889     0.203677777778     0.364333333333     0          
O        O      0.397022222222     0.063677777778     0.500033333333     0          
O        O      0.451855555556     0.027611111111     0.422933333333     0          
O        O      0.436855555556     0.292944444444     0.412633333333     0          
O        O      0.462988888889     0.008277777778     0.364333333333     0          
O        O      0.602988888889     0.000011111111     0.500033333333     0          
O        O      0.639055555556     0.090911111111     0.422933333333     0          
O        O      0.373722222222     0.143911111111     0.412633333333     0          
O        O      0.658388888889     0.121377777778     0.364333333333     0          
O        O      0.666655555556     0.269644444444     0.500033333333     0          
O        O      0.340744444444     0.202022222222     0.756266666667     0          
O        O      0.659077777778     0.255022222222     0.745966666667     0          
O        O      0.395744444444     0.270922222222     0.746566666667     0          
O        O      0.351877777778     0.232488888889     0.697666666667     0          
O        O      0.494277777778     0.321922222222     0.812166666667     0          
O        O      0.465711111111     0.264755555556     0.770766666667     0          
O        O      0.502377777778     0.004788888889     0.874966666667     0          
O        O      0.465711111111     0.264722222222     0.874766666667     0          
O        O      0.479611111111     0.187055555556     0.675766666667     0          
O        O      0.444444444444     0.222222222222     0.822766666667     0          
O        O      0.464644444444     0.138722222222     0.756266666667     0          
O        O      0.411644444444     0.070722222222     0.745966666667     0          
O        O      0.395744444444     0.124822222222     0.746566666667     0          
O        O      0.434177777778     0.119388888889     0.697666666667     0          
O        O      0.344744444444     0.172355555556     0.812166666667     0          
O        O      0.401911111111     0.200955555556     0.770766666667     0          
O        O      0.661877777778     0.164255555556     0.874966666667     0          
O        O      0.401944444444     0.200988888889     0.874766666667     0          
O        O      0.479611111111     0.292555555556     0.675766666667     0          
O        O      0.527944444444     0.325922222222     0.756266666667     0          
O        O      0.595944444444     0.007588888889     0.745966666667     0          
O        O      0.541844444444     0.270922222222     0.746566666667     0          
O        O      0.547277777778     0.314788888889     0.697666666667     0          
O        O      0.494311111111     0.172388888889     0.812166666667     0          
O        O      0.465711111111     0.200955555556     0.770766666667     0          
O        O      0.502411111111     0.164288888889     0.874966666667     0          
O        O      0.465677777778     0.200955555556     0.874766666667     0          
O        O      0.374111111111     0.187055555556     0.675766666667     0          
O        O      0.424244444444     0.118522222222     0.577066666667     0          
O        O      0.477244444444     0.103522222222     0.587366666667     0          
O        O      0.493144444444     0.173522222222     0.586766666667     0          
O        O      0.454711111111     0.129655555556     0.635666666667     0          
O        O      0.544144444444     0.272055555556     0.521166666667     0          
O        O      0.486977777778     0.243488888889     0.562566666667     0          
O        O      0.560344444444     0.280155555556     0.458366666667     0          
O        O      0.486944444444     0.243488888889     0.458566666667     0          
O        O      0.409277777778     0.257388888889     0.657566666667     0          
O        O      0.444444444444     0.222222222222     0.510566666667     0          
O        O      0.548144444444     0.305722222222     0.577066666667     0          
O        O      0.563144444444     0.040388888889     0.587366666667     0          
O        O      0.493144444444     0.319622222222     0.586766666667     0          
O        O      0.537011111111     0.325055555556     0.635666666667     0          
O        O      0.394611111111     0.272088888889     0.521166666667     0          
O        O      0.423177777778     0.243488888889     0.562566666667     0          
O        O      0.386511111111     0.280188888889     0.458366666667     0          
O        O      0.397011111111     0.333322222222     0.499966666667     0          
O        O      0.423177777778     0.243455555556     0.458566666667     0          
O        O      0.409277777778     0.151888888889     0.657566666667     0          
O        O      0.360944444444     0.242422222222     0.577066666667     0          
O        O      0.626277777778     0.189422222222     0.587366666667     0          
O        O      0.347044444444     0.173522222222     0.586766666667     0          
O        O      0.341611111111     0.211955555556     0.635666666667     0          
O        O      0.394577777778     0.122522222222     0.521166666667     0          
O        O      0.423177777778     0.179688888889     0.562566666667     0          
O        O      0.386477777778     0.106322222222     0.458366666667     0          
O        O      0.423211111111     0.179722222222     0.458566666667     0          
O        O      0.514777777778     0.257388888889     0.657566666667     0          
O        O      0.548144444444     0.242422222222     0.577066666667     0          
O        O      0.563144444444     0.189422222222     0.587366666667     0          
O        O      0.537011111111     0.211955555556     0.635666666667     0          
O        O      0.424244444444     0.305722222222     0.577066666667     0          
O        O      0.477244444444     0.040388888889     0.587366666667     0          
O        O      0.454711111111     0.325055555556     0.635666666667     0          
O        O      0.602977777778     0.333322222222     0.499966666667     0          
O        O      0.360944444444     0.118522222222     0.577066666667     0          
O        O      0.626277777778     0.103522222222     0.587366666667     0          
O        O      0.341611111111     0.129655555556     0.635666666667     0          
O        O      0.464644444444     0.325922222222     0.756266666667     0          
O        O      0.411644444444     0.007588888889     0.745966666667     0          
O        O      0.434177777778     0.314788888889     0.697666666667     0          
O        O      0.340744444444     0.138722222222     0.756266666667     0          
O        O      0.659077777778     0.070722222222     0.745966666667     0          
O        O      0.351877777778     0.119388888889     0.697666666667     0          
O        O      0.527944444444     0.202022222222     0.756266666667     0          
O        O      0.595944444444     0.255022222222     0.745966666667     0          
O        O      0.547277777778     0.232488888889     0.697666666667     0          
O        O      0.562966666667     0.646466666667     0.089600000000     0          
O        O      0.547966666667     0.366133333333     0.079300000000     0          
O        O      0.617966666667     0.382033333333     0.079900000000     0          
O        O      0.574100000000     0.343600000000     0.031000000000     0          
O        O      0.383166666667     0.433033333333     0.145500000000     0          
O        O      0.354600000000     0.375866666667     0.104100000000     0          
O        O      0.391266666667     0.449233333333     0.208300000000     0          
O        O      0.380766666667     0.491866666667     0.166700000000     0          
O        O      0.354600000000     0.375833333333     0.208100000000     0          
O        O      0.368500000000     0.631500000000     0.009100000000     0          
O        O      0.333333333333     0.333333333333     0.156100000000     0          
O        O      0.353533333333     0.583166666667     0.089600000000     0          
O        O      0.633866666667     0.515166666667     0.079300000000     0          
O        O      0.617966666667     0.569266666667     0.079900000000     0          
O        O      0.656400000000     0.563833333333     0.031000000000     0          
O        O      0.566966666667     0.616800000000     0.145500000000     0          
O        O      0.624133333333     0.645400000000     0.104100000000     0          
O        O      0.550766666667     0.608700000000     0.208300000000     0          
O        O      0.508133333333     0.555566666667     0.166700000000     0          
O        O      0.624166666667     0.645433333333     0.208100000000     0          
O        O      0.368500000000     0.403666666667     0.009100000000     0          
O        O      0.416833333333     0.437033333333     0.089600000000     0          
O        O      0.484833333333     0.452033333333     0.079300000000     0          
O        O      0.430733333333     0.382033333333     0.079900000000     0          
O        O      0.436166666667     0.425900000000     0.031000000000     0          
O        O      0.383200000000     0.616833333333     0.145500000000     0          
O        O      0.354600000000     0.645400000000     0.104100000000     0          
O        O      0.391300000000     0.608733333333     0.208300000000     0          
O        O      0.444433333333     0.619233333333     0.166700000000     0          
O        O      0.354566666667     0.645400000000     0.208100000000     0          
O        O      0.596333333333     0.631500000000     0.009100000000     0          
O        O      0.646466666667     0.562966666667     0.910400000000     0          
O        O      0.366133333333     0.547966666667     0.920700000000     0          
O        O      0.382033333333     0.617966666667     0.920100000000     0          
O        O      0.343600000000     0.574100000000     0.969000000000     0          
O        O      0.433033333333     0.383166666667     0.854500000000     0          
O        O      0.375866666667     0.354600000000     0.895900000000     0          
O        O      0.449233333333     0.391266666667     0.791700000000     0          
O        O      0.491866666667     0.380766666667     0.833300000000     0          
O        O      0.375833333333     0.354600000000     0.791900000000     0          
O        O      0.631500000000     0.368500000000     0.990900000000     0          
O        O      0.333333333333     0.333333333333     0.843900000000     0          
O        O      0.437033333333     0.416833333333     0.910400000000     0          
O        O      0.452033333333     0.484833333333     0.920700000000     0          
O        O      0.382033333333     0.430733333333     0.920100000000     0          
O        O      0.425900000000     0.436166666667     0.969000000000     0          
O        O      0.616833333333     0.383200000000     0.854500000000     0          
O        O      0.645400000000     0.354600000000     0.895900000000     0          
O        O      0.608733333333     0.391300000000     0.791700000000     0          
O        O      0.619233333333     0.444433333333     0.833300000000     0          
O        O      0.645400000000     0.354566666667     0.791900000000     0          
O        O      0.631500000000     0.596333333333     0.990900000000     0          
O        O      0.583166666667     0.353533333333     0.910400000000     0          
O        O      0.515166666667     0.633866666667     0.920700000000     0          
O        O      0.569266666667     0.617966666667     0.920100000000     0          
O        O      0.563833333333     0.656400000000     0.969000000000     0          
O        O      0.616800000000     0.566966666667     0.854500000000     0          
O        O      0.645400000000     0.624133333333     0.895900000000     0          
O        O      0.608700000000     0.550766666667     0.791700000000     0          
O        O      0.555566666667     0.508133333333     0.833300000000     0          
O        O      0.645433333333     0.624166666667     0.791900000000     0          
O        O      0.403666666667     0.368500000000     0.990900000000     0          
O        O      0.437033333333     0.353533333333     0.910400000000     0          
O        O      0.452033333333     0.633866666667     0.920700000000     0          
O        O      0.425900000000     0.656400000000     0.969000000000     0          
O        O      0.619233333333     0.508133333333     0.833300000000     0          
O        O      0.646466666667     0.416833333333     0.910400000000     0          
O        O      0.366133333333     0.484833333333     0.920700000000     0          
O        O      0.343600000000     0.436166666667     0.969000000000     0          
O        O      0.491866666667     0.444433333333     0.833300000000     0          
O        O      0.583166666667     0.562966666667     0.910400000000     0          
O        O      0.515166666667     0.547966666667     0.920700000000     0          
O        O      0.563833333333     0.574100000000     0.969000000000     0          
O        O      0.555566666667     0.380766666667     0.833300000000     0          
O        O      0.353533333333     0.437033333333     0.089600000000     0          
O        O      0.633866666667     0.452033333333     0.079300000000     0          
O        O      0.656400000000     0.425900000000     0.031000000000     0          
O        O      0.508133333333     0.619233333333     0.166700000000     0          
O        O      0.562966666667     0.583166666667     0.089600000000     0          
O        O      0.547966666667     0.515166666667     0.079300000000     0          
O        O      0.574100000000     0.563833333333     0.031000000000     0          
O        O      0.380766666667     0.555566666667     0.166700000000     0          
O        O      0.416833333333     0.646466666667     0.089600000000     0          
O        O      0.484833333333     0.366133333333     0.079300000000     0          
O        O      0.436166666667     0.343600000000     0.031000000000     0          
O        O      0.444433333333     0.491866666667     0.166700000000     0          
O        O      0.451855555556     0.424244444444     0.422933333333     0          
O        O      0.436855555556     0.477244444444     0.412633333333     0          
O        O      0.506855555556     0.493144444444     0.413233333333     0          
O        O      0.462988888889     0.454711111111     0.364333333333     0          
O        O      0.605388888889     0.544144444444     0.478833333333     0          
O        O      0.576822222222     0.486977777778     0.437433333333     0          
O        O      0.613488888889     0.560344444444     0.541633333333     0          
O        O      0.602988888889     0.602977777778     0.500033333333     0          
O        O      0.576822222222     0.486944444444     0.541433333333     0          
O        O      0.590722222222     0.409277777778     0.342433333333     0          
O        O      0.555555555556     0.444444444444     0.489433333333     0          
O        O      0.575755555556     0.360944444444     0.422933333333     0          
O        O      0.522755555556     0.626277777778     0.412633333333     0          
O        O      0.506855555556     0.347044444444     0.413233333333     0          
O        O      0.545288888889     0.341611111111     0.364333333333     0          
O        O      0.455855555556     0.394577777778     0.478833333333     0          
O        O      0.513022222222     0.423177777778     0.437433333333     0          
O        O      0.439655555556     0.386477777778     0.541633333333     0          
O        O      0.513055555556     0.423211111111     0.541433333333     0          
O        O      0.590722222222     0.514777777778     0.342433333333     0          
O        O      0.639055555556     0.548144444444     0.422933333333     0          
O        O      0.373722222222     0.563144444444     0.412633333333     0          
O        O      0.652955555556     0.493144444444     0.413233333333     0          
O        O      0.658388888889     0.537011111111     0.364333333333     0          
O        O      0.605422222222     0.394611111111     0.478833333333     0          
O        O      0.576822222222     0.423177777778     0.437433333333     0          
O        O      0.613522222222     0.386511111111     0.541633333333     0          
O        O      0.666655555556     0.397011111111     0.500033333333     0          
O        O      0.576788888889     0.423177777778     0.541433333333     0          
O        O      0.485222222222     0.409277777778     0.342433333333     0          
O        O      0.535355555556     0.340744444444     0.243733333333     0          
O        O      0.588355555556     0.659077777778     0.254033333333     0          
O        O      0.604255555556     0.395744444444     0.253433333333     0          
O        O      0.565822222222     0.351877777778     0.302333333333     0          
O        O      0.655255555556     0.494277777778     0.187833333333     0          
O        O      0.598088888889     0.465711111111     0.229233333333     0          
O        O      0.338122222222     0.502377777778     0.125033333333     0          
O        O      0.598055555556     0.465711111111     0.125233333333     0          
O        O      0.520388888889     0.479611111111     0.324233333333     0          
O        O      0.555555555556     0.444444444444     0.177233333333     0          
O        O      0.659255555556     0.527944444444     0.243733333333     0          
O        O      0.340922222222     0.595944444444     0.254033333333     0          
O        O      0.604255555556     0.541844444444     0.253433333333     0          
O        O      0.648122222222     0.547277777778     0.302333333333     0          
O        O      0.505722222222     0.494311111111     0.187833333333     0          
O        O      0.534288888889     0.465711111111     0.229233333333     0          
O        O      0.497622222222     0.502411111111     0.125033333333     0          
O        O      0.534288888889     0.465677777778     0.125233333333     0          
O        O      0.520388888889     0.374111111111     0.324233333333     0          
O        O      0.472055555556     0.464644444444     0.243733333333     0          
O        O      0.404055555556     0.411644444444     0.254033333333     0          
O        O      0.458155555556     0.395744444444     0.253433333333     0          
O        O      0.452722222222     0.434177777778     0.302333333333     0          
O        O      0.505688888889     0.344744444444     0.187833333333     0          
O        O      0.534288888889     0.401911111111     0.229233333333     0          
O        O      0.497588888889     0.661877777778     0.125033333333     0          
O        O      0.534322222222     0.401944444444     0.125233333333     0          
O        O      0.625888888889     0.479611111111     0.324233333333     0          
O        O      0.659255555556     0.464644444444     0.243733333333     0          
O        O      0.340922222222     0.411644444444     0.254033333333     0          
O        O      0.648122222222     0.434177777778     0.302333333333     0          
O        O      0.535355555556     0.527944444444     0.243733333333     0          
O        O      0.588355555556     0.595944444444     0.254033333333     0          
O        O      0.565822222222     0.547277777778     0.302333333333     0          
O        O      0.472055555556     0.340744444444     0.243733333333     0          
O        O      0.404055555556     0.659077777778     0.254033333333     0          
O        O      0.452722222222     0.351877777778     0.302333333333     0          
O        O      0.575755555556     0.548144444444     0.422933333333     0          
O        O      0.522755555556     0.563144444444     0.412633333333     0          
O        O      0.545288888889     0.537011111111     0.364333333333     0          
O        O      0.397022222222     0.397011111111     0.500033333333     0          
O        O      0.451855555556     0.360944444444     0.422933333333     0          
O        O      0.436855555556     0.626277777778     0.412633333333     0          
O        O      0.462988888889     0.341611111111     0.364333333333     0          
O        O      0.639055555556     0.424244444444     0.422933333333     0          
O        O      0.373722222222     0.477244444444     0.412633333333     0          
O        O      0.658388888889     0.454711111111     0.364333333333     0          
O        O      0.666655555556     0.602977777778     0.500033333333     0          
O        O      0.340744444444     0.535355555556     0.756266666667     0          
O        O      0.659077777778     0.588355555556     0.745966666667     0          
O        O      0.395744444444     0.604255555556     0.746566666667     0          
O        O      0.351877777778     0.565822222222     0.697666666667     0          
O        O      0.494277777778     0.655255555556     0.812166666667     0          
O        O      0.465711111111     0.598088888889     0.770766666667     0          
O        O      0.502377777778     0.338122222222     0.874966666667     0          
O        O      0.465711111111     0.598055555556     0.874766666667     0          
O        O      0.479611111111     0.520388888889     0.675766666667     0          
O        O      0.444444444444     0.555555555556     0.822766666667     0          
O        O      0.464644444444     0.472055555556     0.756266666667     0          
O        O      0.411644444444     0.404055555556     0.745966666667     0          
O        O      0.395744444444     0.458155555556     0.746566666667     0          
O        O      0.434177777778     0.452722222222     0.697666666667     0          
O        O      0.344744444444     0.505688888889     0.812166666667     0          
O        O      0.401911111111     0.534288888889     0.770766666667     0          
O        O      0.661877777778     0.497588888889     0.874966666667     0          
O        O      0.401944444444     0.534322222222     0.874766666667     0          
O        O      0.479611111111     0.625888888889     0.675766666667     0          
O        O      0.527944444444     0.659255555556     0.756266666667     0          
O        O      0.595944444444     0.340922222222     0.745966666667     0          
O        O      0.541844444444     0.604255555556     0.746566666667     0          
O        O      0.547277777778     0.648122222222     0.697666666667     0          
O        O      0.494311111111     0.505722222222     0.812166666667     0          
O        O      0.465711111111     0.534288888889     0.770766666667     0          
O        O      0.502411111111     0.497622222222     0.874966666667     0          
O        O      0.465677777778     0.534288888889     0.874766666667     0          
O        O      0.374111111111     0.520388888889     0.675766666667     0          
O        O      0.424244444444     0.451855555556     0.577066666667     0          
O        O      0.477244444444     0.436855555556     0.587366666667     0          
O        O      0.493144444444     0.506855555556     0.586766666667     0          
O        O      0.454711111111     0.462988888889     0.635666666667     0          
O        O      0.544144444444     0.605388888889     0.521166666667     0          
O        O      0.486977777778     0.576822222222     0.562566666667     0          
O        O      0.560344444444     0.613488888889     0.458366666667     0          
O        O      0.486944444444     0.576822222222     0.458566666667     0          
O        O      0.409277777778     0.590722222222     0.657566666667     0          
O        O      0.444444444444     0.555555555556     0.510566666667     0          
O        O      0.548144444444     0.639055555556     0.577066666667     0          
O        O      0.563144444444     0.373722222222     0.587366666667     0          
O        O      0.493144444444     0.652955555556     0.586766666667     0          
O        O      0.537011111111     0.658388888889     0.635666666667     0          
O        O      0.394611111111     0.605422222222     0.521166666667     0          
O        O      0.423177777778     0.576822222222     0.562566666667     0          
O        O      0.386511111111     0.613522222222     0.458366666667     0          
O        O      0.397011111111     0.666655555556     0.499966666667     0          
O        O      0.423177777778     0.576788888889     0.458566666667     0          
O        O      0.409277777778     0.485222222222     0.657566666667     0          
O        O      0.360944444444     0.575755555556     0.577066666667     0          
O        O      0.626277777778     0.522755555556     0.587366666667     0          
O        O      0.347044444444     0.506855555556     0.586766666667     0          
O        O      0.341611111111     0.545288888889     0.635666666667     0          
O        O      0.394577777778     0.455855555556     0.521166666667     0          
O        O      0.423177777778     0.513022222222     0.562566666667     0          
O        O      0.386477777778     0.439655555556     0.458366666667     0          
O        O      0.423211111111     0.513055555556     0.458566666667     0          
O        O      0.514777777778     0.590722222222     0.657566666667     0          
O        O      0.548144444444     0.575755555556     0.577066666667     0          
O        O      0.563144444444     0.522755555556     0.587366666667     0          
O        O      0.537011111111     0.545288888889     0.635666666667     0          
O        O      0.424244444444     0.639055555556     0.577066666667     0          
O        O      0.477244444444     0.373722222222     0.587366666667     0          
O        O      0.454711111111     0.658388888889     0.635666666667     0          
O        O      0.602977777778     0.666655555556     0.499966666667     0          
O        O      0.360944444444     0.451855555556     0.577066666667     0          
O        O      0.626277777778     0.436855555556     0.587366666667     0          
O        O      0.341611111111     0.462988888889     0.635666666667     0          
O        O      0.464644444444     0.659255555556     0.756266666667     0          
O        O      0.411644444444     0.340922222222     0.745966666667     0          
O        O      0.434177777778     0.648122222222     0.697666666667     0          
O        O      0.340744444444     0.472055555556     0.756266666667     0          
O        O      0.659077777778     0.404055555556     0.745966666667     0          
O        O      0.351877777778     0.452722222222     0.697666666667     0          
O        O      0.527944444444     0.535355555556     0.756266666667     0          
O        O      0.595944444444     0.588355555556     0.745966666667     0          
O        O      0.547277777778     0.565822222222     0.697666666667     0          
O        O      0.562966666667     0.979800000000     0.089600000000     0          
O        O      0.547966666667     0.699466666667     0.079300000000     0          
O        O      0.617966666667     0.715366666667     0.079900000000     0          
O        O      0.574100000000     0.676933333333     0.031000000000     0          
O        O      0.383166666667     0.766366666667     0.145500000000     0          
O        O      0.354600000000     0.709200000000     0.104100000000     0          
O        O      0.391266666667     0.782566666667     0.208300000000     0          
O        O      0.380766666667     0.825200000000     0.166700000000     0          
O        O      0.354600000000     0.709166666667     0.208100000000     0          
O        O      0.368500000000     0.964833333333     0.009100000000     0          
O        O      0.333333333333     0.666666666667     0.156100000000     0          
O        O      0.353533333333     0.916500000000     0.089600000000     0          
O        O      0.633866666667     0.848500000000     0.079300000000     0          
O        O      0.617966666667     0.902600000000     0.079900000000     0          
O        O      0.656400000000     0.897166666667     0.031000000000     0          
O        O      0.566966666667     0.950133333333     0.145500000000     0          
O        O      0.624133333333     0.978733333333     0.104100000000     0          
O        O      0.550766666667     0.942033333333     0.208300000000     0          
O        O      0.508133333333     0.888900000000     0.166700000000     0          
O        O      0.624166666667     0.978766666667     0.208100000000     0          
O        O      0.368500000000     0.737000000000     0.009100000000     0          
O        O      0.416833333333     0.770366666667     0.089600000000     0          
O        O      0.484833333333     0.785366666667     0.079300000000     0          
O        O      0.430733333333     0.715366666667     0.079900000000     0          
O        O      0.436166666667     0.759233333333     0.031000000000     0          
O        O      0.383200000000     0.950166666667     0.145500000000     0          
O        O      0.354600000000     0.978733333333     0.104100000000     0          
O        O      0.391300000000     0.942066666667     0.208300000000     0          
O        O      0.444433333333     0.952566666667     0.166700000000     0          
O        O      0.354566666667     0.978733333333     0.208100000000     0          
O        O      0.596333333333     0.964833333333     0.009100000000     0          
O        O      0.646466666667     0.896300000000     0.910400000000     0          
O        O      0.366133333333     0.881300000000     0.920700000000     0          
O        O      0.382033333333     0.951300000000     0.920100000000     0          
O        O      0.343600000000     0.907433333333     0.969000000000     0          
O        O      0.433033333333     0.716500000000     0.854500000000     0          
O        O      0.375866666667     0.687933333333     0.895900000000     0          
O        O      0.449233333333     0.724600000000     0.791700000000     0          
O        O      0.491866666667     0.714100000000     0.833300000000     0          
O        O      0.375833333333     0.687933333333     0.791900000000     0          
O        O      0.631500000000     0.701833333333     0.990900000000     0          
O        O      0.333333333333     0.666666666667     0.843900000000     0          
O        O      0.437033333333     0.750166666667     0.910400000000     0          
O        O      0.452033333333     0.818166666667     0.920700000000     0          
O        O      0.382033333333     0.764066666667     0.920100000000     0          
O        O      0.425900000000     0.769500000000     0.969000000000     0          
O        O      0.616833333333     0.716533333333     0.854500000000     0          
O        O      0.645400000000     0.687933333333     0.895900000000     0          
O        O      0.608733333333     0.724633333333     0.791700000000     0          
O        O      0.619233333333     0.777766666667     0.833300000000     0          
O        O      0.645400000000     0.687900000000     0.791900000000     0          
O        O      0.631500000000     0.929666666667     0.990900000000     0          
O        O      0.583166666667     0.686866666667     0.910400000000     0          
O        O      0.515166666667     0.967200000000     0.920700000000     0          
O        O      0.569266666667     0.951300000000     0.920100000000     0          
O        O      0.563833333333     0.989733333333     0.969000000000     0          
O        O      0.616800000000     0.900300000000     0.854500000000     0          
O        O      0.645400000000     0.957466666667     0.895900000000     0          
O        O      0.608700000000     0.884100000000     0.791700000000     0          
O        O      0.555566666667     0.841466666667     0.833300000000     0          
O        O      0.645433333333     0.957500000000     0.791900000000     0          
O        O      0.403666666667     0.701833333333     0.990900000000     0          
O        O      0.437033333333     0.686866666667     0.910400000000     0          
O        O      0.452033333333     0.967200000000     0.920700000000     0          
O        O      0.425900000000     0.989733333333     0.969000000000     0          
O        O      0.619233333333     0.841466666667     0.833300000000     0          
O        O      0.646466666667     0.750166666667     0.910400000000     0          
O        O      0.366133333333     0.818166666667     0.920700000000     0          
O        O      0.343600000000     0.769500000000     0.969000000000     0          
O        O      0.491866666667     0.777766666667     0.833300000000     0          
O        O      0.583166666667     0.896300000000     0.910400000000     0          
O        O      0.515166666667     0.881300000000     0.920700000000     0          
O        O      0.563833333333     0.907433333333     0.969000000000     0          
O        O      0.555566666667     0.714100000000     0.833300000000     0          
O        O      0.353533333333     0.770366666667     0.089600000000     0          
O        O      0.633866666667     0.785366666667     0.079300000000     0          
O        O      0.656400000000     0.759233333333     0.031000000000     0          
O        O      0.508133333333     0.952566666667     0.166700000000     0          
O        O      0.562966666667     0.916500000000     0.089600000000     0          
O        O      0.547966666667     0.848500000000     0.079300000000     0          
O        O      0.574100000000     0.897166666667     0.031000000000     0          
O        O      0.380766666667     0.888900000000     0.166700000000     0          
O        O      0.416833333333     0.979800000000     0.089600000000     0          
O        O      0.484833333333     0.699466666667     0.079300000000     0          
O        O      0.436166666667     0.676933333333     0.031000000000     0          
O        O      0.444433333333     0.825200000000     0.166700000000     0          
O        O      0.451855555556     0.757577777778     0.422933333333     0          
O        O      0.436855555556     0.810577777778     0.412633333333     0          
O        O      0.506855555556     0.826477777778     0.413233333333     0          
O        O      0.462988888889     0.788044444444     0.364333333333     0          
O        O      0.605388888889     0.877477777778     0.478833333333     0          
O        O      0.576822222222     0.820311111111     0.437433333333     0          
O        O      0.613488888889     0.893677777778     0.541633333333     0          
O        O      0.602988888889     0.936311111111     0.500033333333     0          
O        O      0.576822222222     0.820277777778     0.541433333333     0          
O        O      0.590722222222     0.742611111111     0.342433333333     0          
O        O      0.555555555556     0.777777777778     0.489433333333     0          
O        O      0.575755555556     0.694277777778     0.422933333333     0          
O        O      0.522755555556     0.959611111111     0.412633333333     0          
O        O      0.506855555556     0.680377777778     0.413233333333     0          
O        O      0.545288888889     0.674944444444     0.364333333333     0          
O        O      0.455855555556     0.727911111111     0.478833333333     0          
O        O      0.513022222222     0.756511111111     0.437433333333     0          
O        O      0.439655555556     0.719811111111     0.541633333333     0          
O        O      0.513055555556     0.756544444444     0.541433333333     0          
O        O      0.590722222222     0.848111111111     0.342433333333     0          
O        O      0.639055555556     0.881477777778     0.422933333333     0          
O        O      0.373722222222     0.896477777778     0.412633333333     0          
O        O      0.652955555556     0.826477777778     0.413233333333     0          
O        O      0.658388888889     0.870344444444     0.364333333333     0          
O        O      0.605422222222     0.727944444444     0.478833333333     0          
O        O      0.576822222222     0.756511111111     0.437433333333     0          
O        O      0.613522222222     0.719844444444     0.541633333333     0          
O        O      0.666655555556     0.730344444444     0.500033333333     0          
O        O      0.576788888889     0.756511111111     0.541433333333     0          
O        O      0.485222222222     0.742611111111     0.342433333333     0          
O        O      0.535355555556     0.674077777778     0.243733333333     0          
O        O      0.588355555556     0.992411111111     0.254033333333     0          
O        O      0.604255555556     0.729077777778     0.253433333333     0          
O        O      0.565822222222     0.685211111111     0.302333333333     0          
O        O      0.655255555556     0.827611111111     0.187833333333     0          
O        O      0.598088888889     0.799044444444     0.229233333333     0          
O        O      0.338122222222     0.835711111111     0.125033333333     0          
O        O      0.598055555556     0.799044444444     0.125233333333     0          
O        O      0.520388888889     0.812944444444     0.324233333333     0          
O        O      0.555555555556     0.777777777778     0.177233333333     0          
O        O      0.659255555556     0.861277777778     0.243733333333     0          
O        O      0.340922222222     0.929277777778     0.254033333333     0          
O        O      0.604255555556     0.875177777778     0.253433333333     0          
O        O      0.648122222222     0.880611111111     0.302333333333     0          
O        O      0.505722222222     0.827644444444     0.187833333333     0          
O        O      0.534288888889     0.799044444444     0.229233333333     0          
O        O      0.497622222222     0.835744444444     0.125033333333     0          
O        O      0.534288888889     0.799011111111     0.125233333333     0          
O        O      0.520388888889     0.707444444444     0.324233333333     0          
O        O      0.472055555556     0.797977777778     0.243733333333     0          
O        O      0.404055555556     0.744977777778     0.254033333333     0          
O        O      0.458155555556     0.729077777778     0.253433333333     0          
O        O      0.452722222222     0.767511111111     0.302333333333     0          
O        O      0.505688888889     0.678077777778     0.187833333333     0          
O        O      0.534288888889     0.735244444444     0.229233333333     0          
O        O      0.497588888889     0.995211111111     0.125033333333     0          
O        O      0.534322222222     0.735277777778     0.125233333333     0          
O        O      0.625888888889     0.812944444444     0.324233333333     0          
O        O      0.659255555556     0.797977777778     0.243733333333     0          
O        O      0.340922222222     0.744977777778     0.254033333333     0          
O        O      0.648122222222     0.767511111111     0.302333333333     0          
O        O      0.535355555556     0.861277777778     0.243733333333     0          
O        O      0.588355555556     0.929277777778     0.254033333333     0          
O        O      0.565822222222     0.880611111111     0.302333333333     0          
O        O      0.472055555556     0.674077777778     0.243733333333     0          
O        O      0.404055555556     0.992411111111     0.254033333333     0          
O        O      0.452722222222     0.685211111111     0.302333333333     0          
O        O      0.575755555556     0.881477777778     0.422933333333     0          
O        O      0.522755555556     0.896477777778     0.412633333333     0          
O        O      0.545288888889     0.870344444444     0.364333333333     0          
O        O      0.397022222222     0.730344444444     0.500033333333     0          
O        O      0.451855555556     0.694277777778     0.422933333333     0          
O        O      0.436855555556     0.959611111111     0.412633333333     0          
O        O      0.462988888889     0.674944444444     0.364333333333     0          
O        O      0.639055555556     0.757577777778     0.422933333333     0          
O        O      0.373722222222     0.810577777778     0.412633333333     0          
O        O      0.658388888889     0.788044444444     0.364333333333     0          
O        O      0.666655555556     0.936311111111     0.500033333333     0          
O        O      0.340744444444     0.868688888889     0.756266666667     0          
O        O      0.659077777778     0.921688888889     0.745966666667     0          
O        O      0.395744444444     0.937588888889     0.746566666667     0          
O        O      0.351877777778     0.899155555556     0.697666666667     0          
O        O      0.494277777778     0.988588888889     0.812166666667     0          
O        O      0.465711111111     0.931422222222     0.770766666667     0          
O        O      0.502377777778     0.671455555556     0.874966666667     0          
O        O      0.465711111111     0.931388888889     0.874766666667     0          
O        O      0.479611111111     0.853722222222     0.675766666667     0          
O        O      0.444444444444     0.888888888889     0.822766666667     0          
O        O      0.464644444444     0.805388888889     0.756266666667     0          
O        O      0.411644444444     0.737388888889     0.745966666667     0          
O        O      0.395744444444     0.791488888889     0.746566666667     0          
O        O      0.434177777778     0.786055555556     0.697666666667     0          
O        O      0.344744444444     0.839022222222     0.812166666667     0          
O        O      0.401911111111     0.867622222222     0.770766666667     0          
O        O      0.661877777778     0.830922222222     0.874966666667     0          
O        O      0.401944444444     0.867655555556     0.874766666667     0          
O        O      0.479611111111     0.959222222222     0.675766666667     0          
O        O      0.527944444444     0.992588888889     0.756266666667     0          
O        O      0.595944444444     0.674255555556     0.745966666667     0          
O        O      0.541844444444     0.937588888889     0.746566666667     0          
O        O      0.547277777778     0.981455555556     0.697666666667     0          
O        O      0.494311111111     0.839055555556     0.812166666667     0          
O        O      0.465711111111     0.867622222222     0.770766666667     0          
O        O      0.502411111111     0.830955555556     0.874966666667     0          
O        O      0.465677777778     0.867622222222     0.874766666667     0          
O        O      0.374111111111     0.853722222222     0.675766666667     0          
O        O      0.424244444444     0.785188888889     0.577066666667     0          
O        O      0.477244444444     0.770188888889     0.587366666667     0          
O        O      0.493144444444     0.840188888889     0.586766666667     0          
O        O      0.454711111111     0.796322222222     0.635666666667     0          
O        O      0.544144444444     0.938722222222     0.521166666667     0          
O        O      0.486977777778     0.910155555556     0.562566666667     0          
O        O      0.560344444444     0.946822222222     0.458366666667     0          
O        O      0.486944444444     0.910155555556     0.458566666667     0          
O        O      0.409277777778     0.924055555556     0.657566666667     0          
O        O      0.444444444444     0.888888888889     0.510566666667     0          
O        O      0.548144444444     0.972388888889     0.577066666667     0          
O        O      0.563144444444     0.707055555556     0.587366666667     0          
O        O      0.493144444444     0.986288888889     0.586766666667     0          
O        O      0.537011111111     0.991722222222     0.635666666667     0          
O        O      0.394611111111     0.938755555556     0.521166666667     0          
O        O      0.423177777778     0.910155555556     0.562566666667     0          
O        O      0.386511111111     0.946855555556     0.458366666667     0          
O        O      0.423177777778     0.910122222222     0.458566666667     0          
O        O      0.409277777778     0.818555555556     0.657566666667     0          
O        O      0.360944444444     0.909088888889     0.577066666667     0          
O        O      0.626277777778     0.856088888889     0.587366666667     0          
O        O      0.347044444444     0.840188888889     0.586766666667     0          
O        O      0.341611111111     0.878622222222     0.635666666667     0          
O        O      0.394577777778     0.789188888889     0.521166666667     0          
O        O      0.423177777778     0.846355555556     0.562566666667     0          
O        O      0.386477777778     0.772988888889     0.458366666667     0          
O        O      0.423211111111     0.846388888889     0.458566666667     0          
O        O      0.514777777778     0.924055555556     0.657566666667     0          
O        O      0.548144444444     0.909088888889     0.577066666667     0          
O        O      0.563144444444     0.856088888889     0.587366666667     0          
O        O      0.537011111111     0.878622222222     0.635666666667     0          
O        O      0.424244444444     0.972388888889     0.577066666667     0          
O        O      0.477244444444     0.707055555556     0.587366666667     0          
O        O      0.454711111111     0.991722222222     0.635666666667     0          
O        O      0.360944444444     0.785188888889     0.577066666667     0          
O        O      0.626277777778     0.770188888889     0.587366666667     0          
O        O      0.341611111111     0.796322222222     0.635666666667     0          
O        O      0.464644444444     0.992588888889     0.756266666667     0          
O        O      0.411644444444     0.674255555556     0.745966666667     0          
O        O      0.434177777778     0.981455555556     0.697666666667     0          
O        O      0.340744444444     0.805388888889     0.756266666667     0          
O        O      0.659077777778     0.737388888889     0.745966666667     0          
O        O      0.351877777778     0.786055555556     0.697666666667     0          
O        O      0.527944444444     0.868688888889     0.756266666667     0          
O        O      0.595944444444     0.921688888889     0.745966666667     0          
O        O      0.547277777778     0.899155555556     0.697666666667     0          
O        O      0.896300000000     0.313133333333     0.089600000000     0          
O        O      0.881300000000     0.032800000000     0.079300000000     0          
O        O      0.951300000000     0.048700000000     0.079900000000     0          
O        O      0.907433333333     0.010266666667     0.031000000000     0          
O        O      0.716500000000     0.099700000000     0.145500000000     0          
O        O      0.687933333333     0.042533333333     0.104100000000     0          
O        O      0.724600000000     0.115900000000     0.208300000000     0          
O        O      0.714100000000     0.158533333333     0.166700000000     0          
O        O      0.687933333333     0.042500000000     0.208100000000     0          
O        O      0.701833333333     0.298166666667     0.009100000000     0          
O        O      0.666666666667     0.000000000000     0.156100000000     0          
O        O      0.686866666667     0.249833333333     0.089600000000     0          
O        O      0.967200000000     0.181833333333     0.079300000000     0          
O        O      0.951300000000     0.235933333333     0.079900000000     0          
O        O      0.989733333333     0.230500000000     0.031000000000     0          
O        O      0.900300000000     0.283466666667     0.145500000000     0          
O        O      0.957466666667     0.312066666667     0.104100000000     0          
O        O      0.884100000000     0.275366666667     0.208300000000     0          
O        O      0.841466666667     0.222233333333     0.166700000000     0          
O        O      0.957500000000     0.312100000000     0.208100000000     0          
O        O      0.701833333333     0.070333333333     0.009100000000     0          
O        O      0.750166666667     0.103700000000     0.089600000000     0          
O        O      0.818166666667     0.118700000000     0.079300000000     0          
O        O      0.764066666667     0.048700000000     0.079900000000     0          
O        O      0.769500000000     0.092566666667     0.031000000000     0          
O        O      0.716533333333     0.283500000000     0.145500000000     0          
O        O      0.687933333333     0.312066666667     0.104100000000     0          
O        O      0.724633333333     0.275400000000     0.208300000000     0          
O        O      0.777766666667     0.285900000000     0.166700000000     0          
O        O      0.687900000000     0.312066666667     0.208100000000     0          
O        O      0.929666666667     0.298166666667     0.009100000000     0          
O        O      0.979800000000     0.229633333333     0.910400000000     0          
O        O      0.699466666667     0.214633333333     0.920700000000     0          
O        O      0.715366666667     0.284633333333     0.920100000000     0          
O        O      0.676933333333     0.240766666667     0.969000000000     0          
O        O      0.766366666667     0.049833333333     0.854500000000     0          
O        O      0.709200000000     0.021266666667     0.895900000000     0          
O        O      0.782566666667     0.057933333333     0.791700000000     0          
O        O      0.825200000000     0.047433333333     0.833300000000     0          
O        O      0.709166666667     0.021266666667     0.791900000000     0          
O        O      0.964833333333     0.035166666667     0.990900000000     0          
O        O      0.666666666667     0.000000000000     0.843900000000     0          
O        O      0.770366666667     0.083500000000     0.910400000000     0          
O        O      0.785366666667     0.151500000000     0.920700000000     0          
O        O      0.715366666667     0.097400000000     0.920100000000     0          
O        O      0.759233333333     0.102833333333     0.969000000000     0          
O        O      0.950166666667     0.049866666667     0.854500000000     0          
O        O      0.978733333333     0.021266666667     0.895900000000     0          
O        O      0.942066666667     0.057966666667     0.791700000000     0          
O        O      0.952566666667     0.111100000000     0.833300000000     0          
O        O      0.978733333333     0.021233333333     0.791900000000     0          
O        O      0.964833333333     0.263000000000     0.990900000000     0          
O        O      0.916500000000     0.020200000000     0.910400000000     0          
O        O      0.848500000000     0.300533333333     0.920700000000     0          
O        O      0.902600000000     0.284633333333     0.920100000000     0          
O        O      0.897166666667     0.323066666667     0.969000000000     0          
O        O      0.950133333333     0.233633333333     0.854500000000     0          
O        O      0.978733333333     0.290800000000     0.895900000000     0          
O        O      0.942033333333     0.217433333333     0.791700000000     0          
O        O      0.888900000000     0.174800000000     0.833300000000     0          
O        O      0.978766666667     0.290833333333     0.791900000000     0          
O        O      0.737000000000     0.035166666667     0.990900000000     0          
O        O      0.770366666667     0.020200000000     0.910400000000     0          
O        O      0.785366666667     0.300533333333     0.920700000000     0          
O        O      0.759233333333     0.323066666667     0.969000000000     0          
O        O      0.952566666667     0.174800000000     0.833300000000     0          
O        O      0.979800000000     0.083500000000     0.910400000000     0          
O        O      0.699466666667     0.151500000000     0.920700000000     0          
O        O      0.676933333333     0.102833333333     0.969000000000     0          
O        O      0.825200000000     0.111100000000     0.833300000000     0          
O        O      0.916500000000     0.229633333333     0.910400000000     0          
O        O      0.848500000000     0.214633333333     0.920700000000     0          
O        O      0.897166666667     0.240766666667     0.969000000000     0          
O        O      0.888900000000     0.047433333333     0.833300000000     0          
O        O      0.686866666667     0.103700000000     0.089600000000     0          
O        O      0.967200000000     0.118700000000     0.079300000000     0          
O        O      0.989733333333     0.092566666667     0.031000000000     0          
O        O      0.841466666667     0.285900000000     0.166700000000     0          
O        O      0.896300000000     0.249833333333     0.089600000000     0          
O        O      0.881300000000     0.181833333333     0.079300000000     0          
O        O      0.907433333333     0.230500000000     0.031000000000     0          
O        O      0.714100000000     0.222233333333     0.166700000000     0          
O        O      0.750166666667     0.313133333333     0.089600000000     0          
O        O      0.818166666667     0.032800000000     0.079300000000     0          
O        O      0.769500000000     0.010266666667     0.031000000000     0          
O        O      0.777766666667     0.158533333333     0.166700000000     0          
O        O      0.785188888889     0.090911111111     0.422933333333     0          
O        O      0.770188888889     0.143911111111     0.412633333333     0          
O        O      0.840188888889     0.159811111111     0.413233333333     0          
O        O      0.796322222222     0.121377777778     0.364333333333     0          
O        O      0.938722222222     0.210811111111     0.478833333333     0          
O        O      0.910155555556     0.153644444444     0.437433333333     0          
O        O      0.946822222222     0.227011111111     0.541633333333     0          
O        O      0.936322222222     0.269644444444     0.500033333333     0          
O        O      0.910155555556     0.153611111111     0.541433333333     0          
O        O      0.924055555556     0.075944444444     0.342433333333     0          
O        O      0.888888888889     0.111111111111     0.489433333333     0          
O        O      0.909088888889     0.027611111111     0.422933333333     0          
O        O      0.856088888889     0.292944444444     0.412633333333     0          
O        O      0.840188888889     0.013711111111     0.413233333333     0          
O        O      0.878622222222     0.008277777778     0.364333333333     0          
O        O      0.789188888889     0.061244444444     0.478833333333     0          
O        O      0.846355555556     0.089844444444     0.437433333333     0          
O        O      0.772988888889     0.053144444444     0.541633333333     0          
O        O      0.730355555556     0.000011111111     0.500033333333     0          
O        O      0.846388888889     0.089877777778     0.541433333333     0          
O        O      0.924055555556     0.181444444444     0.342433333333     0          
O        O      0.972388888889     0.214811111111     0.422933333333     0          
O        O      0.707055555556     0.229811111111     0.412633333333     0          
O        O      0.986288888889     0.159811111111     0.413233333333     0          
O        O      0.991722222222     0.203677777778     0.364333333333     0          
O        O      0.938755555556     0.061277777778     0.478833333333     0          
O        O      0.910155555556     0.089844444444     0.437433333333     0          
O        O      0.946855555556     0.053177777778     0.541633333333     0          
O        O      0.910122222222     0.089844444444     0.541433333333     0          
O        O      0.818555555556     0.075944444444     0.342433333333     0          
O        O      0.868688888889     0.007411111111     0.243733333333     0          
O        O      0.921688888889     0.325744444444     0.254033333333     0          
O        O      0.937588888889     0.062411111111     0.253433333333     0          
O        O      0.899155555556     0.018544444444     0.302333333333     0          
O        O      0.988588888889     0.160944444444     0.187833333333     0          
O        O      0.931422222222     0.132377777778     0.229233333333     0          
O        O      0.671455555556     0.169044444444     0.125033333333     0          
O        O      0.931388888889     0.132377777778     0.125233333333     0          
O        O      0.853722222222     0.146277777778     0.324233333333     0          
O        O      0.888888888889     0.111111111111     0.177233333333     0          
O        O      0.992588888889     0.194611111111     0.243733333333     0          
O        O      0.674255555556     0.262611111111     0.254033333333     0          
O        O      0.937588888889     0.208511111111     0.253433333333     0          
O        O      0.981455555556     0.213944444444     0.302333333333     0          
O        O      0.839055555556     0.160977777778     0.187833333333     0          
O        O      0.867622222222     0.132377777778     0.229233333333     0          
O        O      0.830955555556     0.169077777778     0.125033333333     0          
O        O      0.867622222222     0.132344444444     0.125233333333     0          
O        O      0.853722222222     0.040777777778     0.324233333333     0          
O        O      0.805388888889     0.131311111111     0.243733333333     0          
O        O      0.737388888889     0.078311111111     0.254033333333     0          
O        O      0.791488888889     0.062411111111     0.253433333333     0          
O        O      0.786055555556     0.100844444444     0.302333333333     0          
O        O      0.839022222222     0.011411111111     0.187833333333     0          
O        O      0.867622222222     0.068577777778     0.229233333333     0          
O        O      0.830922222222     0.328544444444     0.125033333333     0          
O        O      0.867655555556     0.068611111111     0.125233333333     0          
O        O      0.959222222222     0.146277777778     0.324233333333     0          
O        O      0.992588888889     0.131311111111     0.243733333333     0          
O        O      0.674255555556     0.078311111111     0.254033333333     0          
O        O      0.981455555556     0.100844444444     0.302333333333     0          
O        O      0.868688888889     0.194611111111     0.243733333333     0          
O        O      0.921688888889     0.262611111111     0.254033333333     0          
O        O      0.899155555556     0.213944444444     0.302333333333     0          
O        O      0.805388888889     0.007411111111     0.243733333333     0          
O        O      0.737388888889     0.325744444444     0.254033333333     0          
O        O      0.786055555556     0.018544444444     0.302333333333     0          
O        O      0.909088888889     0.214811111111     0.422933333333     0          
O        O      0.856088888889     0.229811111111     0.412633333333     0          
O        O      0.878622222222     0.203677777778     0.364333333333     0          
O        O      0.730355555556     0.063677777778     0.500033333333     0          
O        O      0.785188888889     0.027611111111     0.422933333333     0          
O        O      0.770188888889     0.292944444444     0.412633333333     0          
O        O      0.796322222222     0.008277777778     0.364333333333     0          
O        O      0.936322222222     0.000011111111     0.500033333333     0          
O        O      0.972388888889     0.090911111111     0.422933333333     0          
O        O      0.707055555556     0.143911111111     0.412633333333     0          
O        O      0.991722222222     0.121377777778     0.364333333333     0          
O        O      0.674077777778     0.202022222222     0.756266666667     0          
O        O      0.992411111111     0.255022222222     0.745966666667     0          
O        O      0.729077777778     0.270922222222     0.746566666667     0          
O        O      0.685211111111     0.232488888889     0.697666666667     0          
O        O      0.827611111111     0.321922222222     0.812166666667     0          
O        O      0.799044444444     0.264755555556     0.770766666667     0          
O        O      0.835711111111     0.004788888889     0.874966666667     0          
O        O      0.799044444444     0.264722222222     0.874766666667     0          
O        O      0.812944444444     0.187055555556     0.675766666667     0          
O        O      0.777777777778     0.222222222222     0.822766666667     0          
O        O      0.797977777778     0.138722222222     0.756266666667     0          
O        O      0.744977777778     0.070722222222     0.745966666667     0          
O        O      0.729077777778     0.124822222222     0.746566666667     0          
O        O      0.767511111111     0.119388888889     0.697666666667     0          
O        O      0.678077777778     0.172355555556     0.812166666667     0          
O        O      0.735244444444     0.200955555556     0.770766666667     0          
O        O      0.995211111111     0.164255555556     0.874966666667     0          
O        O      0.735277777778     0.200988888889     0.874766666667     0          
O        O      0.812944444444     0.292555555556     0.675766666667     0          
O        O      0.861277777778     0.325922222222     0.756266666667     0          
O        O      0.929277777778     0.007588888889     0.745966666667     0          
O        O      0.875177777778     0.270922222222     0.746566666667     0          
O        O      0.880611111111     0.314788888889     0.697666666667     0          
O        O      0.827644444444     0.172388888889     0.812166666667     0          
O        O      0.799044444444     0.200955555556     0.770766666667     0          
O        O      0.835744444444     0.164288888889     0.874966666667     0          
O        O      0.799011111111     0.200955555556     0.874766666667     0          
O        O      0.707444444444     0.187055555556     0.675766666667     0          
O        O      0.757577777778     0.118522222222     0.577066666667     0          
O        O      0.810577777778     0.103522222222     0.587366666667     0          
O        O      0.826477777778     0.173522222222     0.586766666667     0          
O        O      0.788044444444     0.129655555556     0.635666666667     0          
O        O      0.877477777778     0.272055555556     0.521166666667     0          
O        O      0.820311111111     0.243488888889     0.562566666667     0          
O        O      0.893677777778     0.280155555556     0.458366666667     0          
O        O      0.820277777778     0.243488888889     0.458566666667     0          
O        O      0.742611111111     0.257388888889     0.657566666667     0          
O        O      0.777777777778     0.222222222222     0.510566666667     0          
O        O      0.881477777778     0.305722222222     0.577066666667     0          
O        O      0.896477777778     0.040388888889     0.587366666667     0          
O        O      0.826477777778     0.319622222222     0.586766666667     0          
O        O      0.870344444444     0.325055555556     0.635666666667     0          
O        O      0.727944444444     0.272088888889     0.521166666667     0          
O        O      0.756511111111     0.243488888889     0.562566666667     0          
O        O      0.719844444444     0.280188888889     0.458366666667     0          
O        O      0.730344444444     0.333322222222     0.499966666667     0          
O        O      0.756511111111     0.243455555556     0.458566666667     0          
O        O      0.742611111111     0.151888888889     0.657566666667     0          
O        O      0.694277777778     0.242422222222     0.577066666667     0          
O        O      0.959611111111     0.189422222222     0.587366666667     0          
O        O      0.680377777778     0.173522222222     0.586766666667     0          
O        O      0.674944444444     0.211955555556     0.635666666667     0          
O        O      0.727911111111     0.122522222222     0.521166666667     0          
O        O      0.756511111111     0.179688888889     0.562566666667     0          
O        O      0.719811111111     0.106322222222     0.458366666667     0          
O        O      0.756544444444     0.179722222222     0.458566666667     0          
O        O      0.848111111111     0.257388888889     0.657566666667     0          
O        O      0.881477777778     0.242422222222     0.577066666667     0          
O        O      0.896477777778     0.189422222222     0.587366666667     0          
O        O      0.870344444444     0.211955555556     0.635666666667     0          
O        O      0.757577777778     0.305722222222     0.577066666667     0          
O        O      0.810577777778     0.040388888889     0.587366666667     0          
O        O      0.788044444444     0.325055555556     0.635666666667     0          
O        O      0.936311111111     0.333322222222     0.499966666667     0          
O        O      0.694277777778     0.118522222222     0.577066666667     0          
O        O      0.959611111111     0.103522222222     0.587366666667     0          
O        O      0.674944444444     0.129655555556     0.635666666667     0          
O        O      0.797977777778     0.325922222222     0.756266666667     0          
O        O      0.744977777778     0.007588888889     0.745966666667     0          
O        O      0.767511111111     0.314788888889     0.697666666667     0          
O        O      0.674077777778     0.138722222222     0.756266666667     0          
O        O      0.992411111111     0.070722222222     0.745966666667     0          
O        O      0.685211111111     0.119388888889     0.697666666667     0          
O        O      0.861277777778     0.202022222222     0.756266666667     0          
O        O      0.929277777778     0.255022222222     0.745966666667     0          
O        O      0.880611111111     0.232488888889     0.697666666667     0          
O        O      0.896300000000     0.646466666667     0.089600000000     0          
O        O      0.881300000000     0.366133333333     0.079300000000     0          
O        O      0.951300000000     0.382033333333     0.079900000000     0          
O        O      0.907433333333     0.343600000000     0.031000000000     0          
O        O      0.716500000000     0.433033333333     0.145500000000     0          
O        O      0.687933333333     0.375866666667     0.104100000000     0          
O        O      0.724600000000     0.449233333333     0.208300000000     0          
O        O      0.714100000000     0.491866666667     0.166700000000     0          
O        O      0.687933333333     0.375833333333     0.208100000000     0          
O        O      0.701833333333     0.631500000000     0.009100000000     0          
O        O      0.666666666667     0.333333333333     0.156100000000     0          
O        O      0.686866666667     0.583166666667     0.089600000000     0          
O        O      0.967200000000     0.515166666667     0.079300000000     0          
O        O      0.951300000000     0.569266666667     0.079900000000     0          
O        O      0.989733333333     0.563833333333     0.031000000000     0          
O        O      0.900300000000     0.616800000000     0.145500000000     0          
O        O      0.957466666667     0.645400000000     0.104100000000     0          
O        O      0.884100000000     0.608700000000     0.208300000000     0          
O        O      0.841466666667     0.555566666667     0.166700000000     0          
O        O      0.957500000000     0.645433333333     0.208100000000     0          
O        O      0.701833333333     0.403666666667     0.009100000000     0          
O        O      0.750166666667     0.437033333333     0.089600000000     0          
O        O      0.818166666667     0.452033333333     0.079300000000     0          
O        O      0.764066666667     0.382033333333     0.079900000000     0          
O        O      0.769500000000     0.425900000000     0.031000000000     0          
O        O      0.716533333333     0.616833333333     0.145500000000     0          
O        O      0.687933333333     0.645400000000     0.104100000000     0          
O        O      0.724633333333     0.608733333333     0.208300000000     0          
O        O      0.777766666667     0.619233333333     0.166700000000     0          
O        O      0.687900000000     0.645400000000     0.208100000000     0          
O        O      0.929666666667     0.631500000000     0.009100000000     0          
O        O      0.979800000000     0.562966666667     0.910400000000     0          
O        O      0.699466666667     0.547966666667     0.920700000000     0          
O        O      0.715366666667     0.617966666667     0.920100000000     0          
O        O      0.676933333333     0.574100000000     0.969000000000     0          
O        O      0.766366666667     0.383166666667     0.854500000000     0          
O        O      0.709200000000     0.354600000000     0.895900000000     0          
O        O      0.782566666667     0.391266666667     0.791700000000     0          
O        O      0.825200000000     0.380766666667     0.833300000000     0          
O        O      0.709166666667     0.354600000000     0.791900000000     0          
O        O      0.964833333333     0.368500000000     0.990900000000     0          
O        O      0.666666666667     0.333333333333     0.843900000000     0          
O        O      0.770366666667     0.416833333333     0.910400000000     0          
O        O      0.785366666667     0.484833333333     0.920700000000     0          
O        O      0.715366666667     0.430733333333     0.920100000000     0          
O        O      0.759233333333     0.436166666667     0.969000000000     0          
O        O      0.950166666667     0.383200000000     0.854500000000     0          
O        O      0.978733333333     0.354600000000     0.895900000000     0          
O        O      0.942066666667     0.391300000000     0.791700000000     0          
O        O      0.952566666667     0.444433333333     0.833300000000     0          
O        O      0.978733333333     0.354566666667     0.791900000000     0          
O        O      0.964833333333     0.596333333333     0.990900000000     0          
O        O      0.916500000000     0.353533333333     0.910400000000     0          
O        O      0.848500000000     0.633866666667     0.920700000000     0          
O        O      0.902600000000     0.617966666667     0.920100000000     0          
O        O      0.897166666667     0.656400000000     0.969000000000     0          
O        O      0.950133333333     0.566966666667     0.854500000000     0          
O        O      0.978733333333     0.624133333333     0.895900000000     0          
O        O      0.942033333333     0.550766666667     0.791700000000     0          
O        O      0.888900000000     0.508133333333     0.833300000000     0          
O        O      0.978766666667     0.624166666667     0.791900000000     0          
O        O      0.737000000000     0.368500000000     0.990900000000     0          
O        O      0.770366666667     0.353533333333     0.910400000000     0          
O        O      0.785366666667     0.633866666667     0.920700000000     0          
O        O      0.759233333333     0.656400000000     0.969000000000     0          
O        O      0.952566666667     0.508133333333     0.833300000000     0          
O        O      0.979800000000     0.416833333333     0.910400000000     0          
O        O      0.699466666667     0.484833333333     0.920700000000     0          
O        O      0.676933333333     0.436166666667     0.969000000000     0          
O        O      0.825200000000     0.444433333333     0.833300000000     0          
O        O      0.916500000000     0.562966666667     0.910400000000     0          
O        O      0.848500000000     0.547966666667     0.920700000000     0          
O        O      0.897166666667     0.574100000000     0.969000000000     0          
O        O      0.888900000000     0.380766666667     0.833300000000     0          
O        O      0.686866666667     0.437033333333     0.089600000000     0          
O        O      0.967200000000     0.452033333333     0.079300000000     0          
O        O      0.989733333333     0.425900000000     0.031000000000     0          
O        O      0.841466666667     0.619233333333     0.166700000000     0          
O        O      0.896300000000     0.583166666667     0.089600000000     0          
O        O      0.881300000000     0.515166666667     0.079300000000     0          
O        O      0.907433333333     0.563833333333     0.031000000000     0          
O        O      0.714100000000     0.555566666667     0.166700000000     0          
O        O      0.750166666667     0.646466666667     0.089600000000     0          
O        O      0.818166666667     0.366133333333     0.079300000000     0          
O        O      0.769500000000     0.343600000000     0.031000000000     0          
O        O      0.777766666667     0.491866666667     0.166700000000     0          
O        O      0.785188888889     0.424244444444     0.422933333333     0          
O        O      0.770188888889     0.477244444444     0.412633333333     0          
O        O      0.840188888889     0.493144444444     0.413233333333     0          
O        O      0.796322222222     0.454711111111     0.364333333333     0          
O        O      0.938722222222     0.544144444444     0.478833333333     0          
O        O      0.910155555556     0.486977777778     0.437433333333     0          
O        O      0.946822222222     0.560344444444     0.541633333333     0          
O        O      0.936322222222     0.602977777778     0.500033333333     0          
O        O      0.910155555556     0.486944444444     0.541433333333     0          
O        O      0.924055555556     0.409277777778     0.342433333333     0          
O        O      0.888888888889     0.444444444444     0.489433333333     0          
O        O      0.909088888889     0.360944444444     0.422933333333     0          
O        O      0.856088888889     0.626277777778     0.412633333333     0          
O        O      0.840188888889     0.347044444444     0.413233333333     0          
O        O      0.878622222222     0.341611111111     0.364333333333     0          
O        O      0.789188888889     0.394577777778     0.478833333333     0          
O        O      0.846355555556     0.423177777778     0.437433333333     0          
O        O      0.772988888889     0.386477777778     0.541633333333     0          
O        O      0.846388888889     0.423211111111     0.541433333333     0          
O        O      0.924055555556     0.514777777778     0.342433333333     0          
O        O      0.972388888889     0.548144444444     0.422933333333     0          
O        O      0.707055555556     0.563144444444     0.412633333333     0          
O        O      0.986288888889     0.493144444444     0.413233333333     0          
O        O      0.991722222222     0.537011111111     0.364333333333     0          
O        O      0.938755555556     0.394611111111     0.478833333333     0          
O        O      0.910155555556     0.423177777778     0.437433333333     0          
O        O      0.946855555556     0.386511111111     0.541633333333     0          
O        O      0.910122222222     0.423177777778     0.541433333333     0          
O        O      0.818555555556     0.409277777778     0.342433333333     0          
O        O      0.868688888889     0.340744444444     0.243733333333     0          
O        O      0.921688888889     0.659077777778     0.254033333333     0          
O        O      0.937588888889     0.395744444444     0.253433333333     0          
O        O      0.899155555556     0.351877777778     0.302333333333     0          
O        O      0.988588888889     0.494277777778     0.187833333333     0          
O        O      0.931422222222     0.465711111111     0.229233333333     0          
O        O      0.671455555556     0.502377777778     0.125033333333     0          
O        O      0.931388888889     0.465711111111     0.125233333333     0          
O        O      0.853722222222     0.479611111111     0.324233333333     0          
O        O      0.888888888889     0.444444444444     0.177233333333     0          
O        O      0.992588888889     0.527944444444     0.243733333333     0          
O        O      0.674255555556     0.595944444444     0.254033333333     0          
O        O      0.937588888889     0.541844444444     0.253433333333     0          
O        O      0.981455555556     0.547277777778     0.302333333333     0          
O        O      0.839055555556     0.494311111111     0.187833333333     0          
O        O      0.867622222222     0.465711111111     0.229233333333     0          
O        O      0.830955555556     0.502411111111     0.125033333333     0          
O        O      0.867622222222     0.465677777778     0.125233333333     0          
O        O      0.853722222222     0.374111111111     0.324233333333     0          
O        O      0.805388888889     0.464644444444     0.243733333333     0          
O        O      0.737388888889     0.411644444444     0.254033333333     0          
O        O      0.791488888889     0.395744444444     0.253433333333     0          
O        O      0.786055555556     0.434177777778     0.302333333333     0          
O        O      0.839022222222     0.344744444444     0.187833333333     0          
O        O      0.867622222222     0.401911111111     0.229233333333     0          
O        O      0.830922222222     0.661877777778     0.125033333333     0          
O        O      0.867655555556     0.401944444444     0.125233333333     0          
O        O      0.959222222222     0.479611111111     0.324233333333     0          
O        O      0.992588888889     0.464644444444     0.243733333333     0          
O        O      0.674255555556     0.411644444444     0.254033333333     0          
O        O      0.981455555556     0.434177777778     0.302333333333     0          
O        O      0.868688888889     0.527944444444     0.243733333333     0          
O        O      0.921688888889     0.595944444444     0.254033333333     0          
O        O      0.899155555556     0.547277777778     0.302333333333     0          
O        O      0.805388888889     0.340744444444     0.243733333333     0          
O        O      0.737388888889     0.659077777778     0.254033333333     0          
O        O      0.786055555556     0.351877777778     0.302333333333     0          
O        O      0.909088888889     0.548144444444     0.422933333333     0          
O        O      0.856088888889     0.563144444444     0.412633333333     0          
O        O      0.878622222222     0.537011111111     0.364333333333     0          
O        O      0.730355555556     0.397011111111     0.500033333333     0          
O        O      0.785188888889     0.360944444444     0.422933333333     0          
O        O      0.770188888889     0.626277777778     0.412633333333     0          
O        O      0.796322222222     0.341611111111     0.364333333333     0          
O        O      0.972388888889     0.424244444444     0.422933333333     0          
O        O      0.707055555556     0.477244444444     0.412633333333     0          
O        O      0.991722222222     0.454711111111     0.364333333333     0          
O        O      0.674077777778     0.535355555556     0.756266666667     0          
O        O      0.992411111111     0.588355555556     0.745966666667     0          
O        O      0.729077777778     0.604255555556     0.746566666667     0          
O        O      0.685211111111     0.565822222222     0.697666666667     0          
O        O      0.827611111111     0.655255555556     0.812166666667     0          
O        O      0.799044444444     0.598088888889     0.770766666667     0          
O        O      0.835711111111     0.338122222222     0.874966666667     0          
O        O      0.799044444444     0.598055555556     0.874766666667     0          
O        O      0.812944444444     0.520388888889     0.675766666667     0          
O        O      0.777777777778     0.555555555556     0.822766666667     0          
O        O      0.797977777778     0.472055555556     0.756266666667     0          
O        O      0.744977777778     0.404055555556     0.745966666667     0          
O        O      0.729077777778     0.458155555556     0.746566666667     0          
O        O      0.767511111111     0.452722222222     0.697666666667     0          
O        O      0.678077777778     0.505688888889     0.812166666667     0          
O        O      0.735244444444     0.534288888889     0.770766666667     0          
O        O      0.995211111111     0.497588888889     0.874966666667     0          
O        O      0.735277777778     0.534322222222     0.874766666667     0          
O        O      0.812944444444     0.625888888889     0.675766666667     0          
O        O      0.861277777778     0.659255555556     0.756266666667     0          
O        O      0.929277777778     0.340922222222     0.745966666667     0          
O        O      0.875177777778     0.604255555556     0.746566666667     0          
O        O      0.880611111111     0.648122222222     0.697666666667     0          
O        O      0.827644444444     0.505722222222     0.812166666667     0          
O        O      0.799044444444     0.534288888889     0.770766666667     0          
O        O      0.835744444444     0.497622222222     0.874966666667     0          
O        O      0.799011111111     0.534288888889     0.874766666667     0          
O        O      0.707444444444     0.520388888889     0.675766666667     0          
O        O      0.757577777778     0.451855555556     0.577066666667     0          
O        O      0.810577777778     0.436855555556     0.587366666667     0          
O        O      0.826477777778     0.506855555556     0.586766666667     0          
O        O      0.788044444444     0.462988888889     0.635666666667     0          
O        O      0.877477777778     0.605388888889     0.521166666667     0          
O        O      0.820311111111     0.576822222222     0.562566666667     0          
O        O      0.893677777778     0.613488888889     0.458366666667     0          
O        O      0.820277777778     0.576822222222     0.458566666667     0          
O        O      0.742611111111     0.590722222222     0.657566666667     0          
O        O      0.777777777778     0.555555555556     0.510566666667     0          
O        O      0.881477777778     0.639055555556     0.577066666667     0          
O        O      0.896477777778     0.373722222222     0.587366666667     0          
O        O      0.826477777778     0.652955555556     0.586766666667     0          
O        O      0.870344444444     0.658388888889     0.635666666667     0          
O        O      0.727944444444     0.605422222222     0.521166666667     0          
O        O      0.756511111111     0.576822222222     0.562566666667     0          
O        O      0.719844444444     0.613522222222     0.458366666667     0          
O        O      0.730344444444     0.666655555556     0.499966666667     0          
O        O      0.756511111111     0.576788888889     0.458566666667     0          
O        O      0.742611111111     0.485222222222     0.657566666667     0          
O        O      0.694277777778     0.575755555556     0.577066666667     0          
O        O      0.959611111111     0.522755555556     0.587366666667     0          
O        O      0.680377777778     0.506855555556     0.586766666667     0          
O        O      0.674944444444     0.545288888889     0.635666666667     0          
O        O      0.727911111111     0.455855555556     0.521166666667     0          
O        O      0.756511111111     0.513022222222     0.562566666667     0          
O        O      0.719811111111     0.439655555556     0.458366666667     0          
O        O      0.756544444444     0.513055555556     0.458566666667     0          
O        O      0.848111111111     0.590722222222     0.657566666667     0          
O        O      0.881477777778     0.575755555556     0.577066666667     0          
O        O      0.896477777778     0.522755555556     0.587366666667     0          
O        O      0.870344444444     0.545288888889     0.635666666667     0          
O        O      0.757577777778     0.639055555556     0.577066666667     0          
O        O      0.810577777778     0.373722222222     0.587366666667     0          
O        O      0.788044444444     0.658388888889     0.635666666667     0          
O        O      0.936311111111     0.666655555556     0.499966666667     0          
O        O      0.694277777778     0.451855555556     0.577066666667     0          
O        O      0.959611111111     0.436855555556     0.587366666667     0          
O        O      0.674944444444     0.462988888889     0.635666666667     0          
O        O      0.797977777778     0.659255555556     0.756266666667     0          
O        O      0.744977777778     0.340922222222     0.745966666667     0          
O        O      0.767511111111     0.648122222222     0.697666666667     0          
O        O      0.674077777778     0.472055555556     0.756266666667     0          
O        O      0.992411111111     0.404055555556     0.745966666667     0          
O        O      0.685211111111     0.452722222222     0.697666666667     0          
O        O      0.861277777778     0.535355555556     0.756266666667     0          
O        O      0.929277777778     0.588355555556     0.745966666667     0          
O        O      0.880611111111     0.565822222222     0.697666666667     0          
O        O      0.896300000000     0.979800000000     0.089600000000     0          
O        O      0.881300000000     0.699466666667     0.079300000000     0          
O        O      0.951300000000     0.715366666667     0.079900000000     0          
O        O      0.907433333333     0.676933333333     0.031000000000     0          
O        O      0.716500000000     0.766366666667     0.145500000000     0          
O        O      0.687933333333     0.709200000000     0.104100000000     0          
O        O      0.724600000000     0.782566666667     0.208300000000     0          
O        O      0.714100000000     0.825200000000     0.166700000000     0          
O        O      0.687933333333     0.709166666667     0.208100000000     0          
O        O      0.701833333333     0.964833333333     0.009100000000     0          
O        O      0.666666666667     0.666666666667     0.156100000000     0          
O        O      0.686866666667     0.916500000000     0.089600000000     0          
O        O      0.967200000000     0.848500000000     0.079300000000     0          
O        O      0.951300000000     0.902600000000     0.079900000000     0          
O        O      0.989733333333     0.897166666667     0.031000000000     0          
O        O      0.900300000000     0.950133333333     0.145500000000     0          
O        O      0.957466666667     0.978733333333     0.104100000000     0          
O        O      0.884100000000     0.942033333333     0.208300000000     0          
O        O      0.841466666667     0.888900000000     0.166700000000     0          
O        O      0.957500000000     0.978766666667     0.208100000000     0          
O        O      0.701833333333     0.737000000000     0.009100000000     0          
O        O      0.750166666667     0.770366666667     0.089600000000     0          
O        O      0.818166666667     0.785366666667     0.079300000000     0          
O        O      0.764066666667     0.715366666667     0.079900000000     0          
O        O      0.769500000000     0.759233333333     0.031000000000     0          
O        O      0.716533333333     0.950166666667     0.145500000000     0          
O        O      0.687933333333     0.978733333333     0.104100000000     0          
O        O      0.724633333333     0.942066666667     0.208300000000     0          
O        O      0.777766666667     0.952566666667     0.166700000000     0          
O        O      0.687900000000     0.978733333333     0.208100000000     0          
O        O      0.929666666667     0.964833333333     0.009100000000     0          
O        O      0.979800000000     0.896300000000     0.910400000000     0          
O        O      0.699466666667     0.881300000000     0.920700000000     0          
O        O      0.715366666667     0.951300000000     0.920100000000     0          
O        O      0.676933333333     0.907433333333     0.969000000000     0          
O        O      0.766366666667     0.716500000000     0.854500000000     0          
O        O      0.709200000000     0.687933333333     0.895900000000     0          
O        O      0.782566666667     0.724600000000     0.791700000000     0          
O        O      0.825200000000     0.714100000000     0.833300000000     0          
O        O      0.709166666667     0.687933333333     0.791900000000     0          
O        O      0.964833333333     0.701833333333     0.990900000000     0          
O        O      0.666666666667     0.666666666667     0.843900000000     0          
O        O      0.770366666667     0.750166666667     0.910400000000     0          
O        O      0.785366666667     0.818166666667     0.920700000000     0          
O        O      0.715366666667     0.764066666667     0.920100000000     0          
O        O      0.759233333333     0.769500000000     0.969000000000     0          
O        O      0.950166666667     0.716533333333     0.854500000000     0          
O        O      0.978733333333     0.687933333333     0.895900000000     0          
O        O      0.942066666667     0.724633333333     0.791700000000     0          
O        O      0.952566666667     0.777766666667     0.833300000000     0          
O        O      0.978733333333     0.687900000000     0.791900000000     0          
O        O      0.964833333333     0.929666666667     0.990900000000     0          
O        O      0.916500000000     0.686866666667     0.910400000000     0          
O        O      0.848500000000     0.967200000000     0.920700000000     0          
O        O      0.902600000000     0.951300000000     0.920100000000     0          
O        O      0.897166666667     0.989733333333     0.969000000000     0          
O        O      0.950133333333     0.900300000000     0.854500000000     0          
O        O      0.978733333333     0.957466666667     0.895900000000     0          
O        O      0.942033333333     0.884100000000     0.791700000000     0          
O        O      0.888900000000     0.841466666667     0.833300000000     0          
O        O      0.978766666667     0.957500000000     0.791900000000     0          
O        O      0.737000000000     0.701833333333     0.990900000000     0          
O        O      0.770366666667     0.686866666667     0.910400000000     0          
O        O      0.785366666667     0.967200000000     0.920700000000     0          
O        O      0.759233333333     0.989733333333     0.969000000000     0          
O        O      0.952566666667     0.841466666667     0.833300000000     0          
O        O      0.979800000000     0.750166666667     0.910400000000     0          
O        O      0.699466666667     0.818166666667     0.920700000000     0          
O        O      0.676933333333     0.769500000000     0.969000000000     0          
O        O      0.825200000000     0.777766666667     0.833300000000     0          
O        O      0.916500000000     0.896300000000     0.910400000000     0          
O        O      0.848500000000     0.881300000000     0.920700000000     0          
O        O      0.897166666667     0.907433333333     0.969000000000     0          
O        O      0.888900000000     0.714100000000     0.833300000000     0          
O        O      0.686866666667     0.770366666667     0.089600000000     0          
O        O      0.967200000000     0.785366666667     0.079300000000     0          
O        O      0.989733333333     0.759233333333     0.031000000000     0          
O        O      0.841466666667     0.952566666667     0.166700000000     0          
O        O      0.896300000000     0.916500000000     0.089600000000     0          
O        O      0.881300000000     0.848500000000     0.079300000000     0          
O        O      0.907433333333     0.897166666667     0.031000000000     0          
O        O      0.714100000000     0.888900000000     0.166700000000     0          
O        O      0.750166666667     0.979800000000     0.089600000000     0          
O        O      0.818166666667     0.699466666667     0.079300000000     0          
O        O      0.769500000000     0.676933333333     0.031000000000     0          
O        O      0.777766666667     0.825200000000     0.166700000000     0          
O        O      0.785188888889     0.757577777778     0.422933333333     0          
O        O      0.770188888889     0.810577777778     0.412633333333     0          
O        O      0.840188888889     0.826477777778     0.413233333333     0          
O        O      0.796322222222     0.788044444444     0.364333333333     0          
O        O      0.938722222222     0.877477777778     0.478833333333     0          
O        O      0.910155555556     0.820311111111     0.437433333333     0          
O        O      0.946822222222     0.893677777778     0.541633333333     0          
O        O      0.936322222222     0.936311111111     0.500033333333     0          
O        O      0.910155555556     0.820277777778     0.541433333333     0          
O        O      0.924055555556     0.742611111111     0.342433333333     0          
O        O      0.888888888889     0.777777777778     0.489433333333     0          
O        O      0.909088888889     0.694277777778     0.422933333333     0          
O        O      0.856088888889     0.959611111111     0.412633333333     0          
O        O      0.840188888889     0.680377777778     0.413233333333     0          
O        O      0.878622222222     0.674944444444     0.364333333333     0          
O        O      0.789188888889     0.727911111111     0.478833333333     0          
O        O      0.846355555556     0.756511111111     0.437433333333     0          
O        O      0.772988888889     0.719811111111     0.541633333333     0          
O        O      0.846388888889     0.756544444444     0.541433333333     0          
O        O      0.924055555556     0.848111111111     0.342433333333     0          
O        O      0.972388888889     0.881477777778     0.422933333333     0          
O        O      0.707055555556     0.896477777778     0.412633333333     0          
O        O      0.986288888889     0.826477777778     0.413233333333     0          
O        O      0.991722222222     0.870344444444     0.364333333333     0          
O        O      0.938755555556     0.727944444444     0.478833333333     0          
O        O      0.910155555556     0.756511111111     0.437433333333     0          
O        O      0.946855555556     0.719844444444     0.541633333333     0          
O        O      0.910122222222     0.756511111111     0.541433333333     0          
O        O      0.818555555556     0.742611111111     0.342433333333     0          
O        O      0.868688888889     0.674077777778     0.243733333333     0          
O        O      0.921688888889     0.992411111111     0.254033333333     0          
O        O      0.937588888889     0.729077777778     0.253433333333     0          
O        O      0.899155555556     0.685211111111     0.302333333333     0          
O        O      0.988588888889     0.827611111111     0.187833333333     0          
O        O      0.931422222222     0.799044444444     0.229233333333     0          
O        O      0.671455555556     0.835711111111     0.125033333333     0          
O        O      0.931388888889     0.799044444444     0.125233333333     0          
O        O      0.853722222222     0.812944444444     0.324233333333     0          
O        O      0.888888888889     0.777777777778     0.177233333333     0          
O        O      0.992588888889     0.861277777778     0.243733333333     0          
O        O      0.674255555556     0.929277777778     0.254033333333     0          
O        O      0.937588888889     0.875177777778     0.253433333333     0          
O        O      0.981455555556     0.880611111111     0.302333333333     0          
O        O      0.839055555556     0.827644444444     0.187833333333     0          
O        O      0.867622222222     0.799044444444     0.229233333333     0          
O        O      0.830955555556     0.835744444444     0.125033333333     0          
O        O      0.867622222222     0.799011111111     0.125233333333     0          
O        O      0.853722222222     0.707444444444     0.324233333333     0          
O        O      0.805388888889     0.797977777778     0.243733333333     0          
O        O      0.737388888889     0.744977777778     0.254033333333     0          
O        O      0.791488888889     0.729077777778     0.253433333333     0          
O        O      0.786055555556     0.767511111111     0.302333333333     0          
O        O      0.839022222222     0.678077777778     0.187833333333     0          
O        O      0.867622222222     0.735244444444     0.229233333333     0          
O        O      0.830922222222     0.995211111111     0.125033333333     0          
O        O      0.867655555556     0.735277777778     0.125233333333     0          
O        O      0.959222222222     0.812944444444     0.324233333333     0          
O        O      0.992588888889     0.797977777778     0.243733333333     0          
O        O      0.674255555556     0.744977777778     0.254033333333     0          
O        O      0.981455555556     0.767511111111     0.302333333333     0          
O        O      0.868688888889     0.861277777778     0.243733333333     0          
O        O      0.921688888889     0.929277777778     0.254033333333     0          
O        O      0.899155555556     0.880611111111     0.302333333333     0          
O        O      0.805388888889     0.674077777778     0.243733333333     0          
O        O      0.737388888889     0.992411111111     0.254033333333     0          
O        O      0.786055555556     0.685211111111     0.302333333333     0          
O        O      0.909088888889     0.881477777778     0.422933333333     0          
O        O      0.856088888889     0.896477777778     0.412633333333     0          
O        O      0.878622222222     0.870344444444     0.364333333333     0          
O        O      0.730355555556     0.730344444444     0.500033333333     0          
O        O      0.785188888889     0.694277777778     0.422933333333     0          
O        O      0.770188888889     0.959611111111     0.412633333333     0          
O        O      0.796322222222     0.674944444444     0.364333333333     0          
O        O      0.972388888889     0.757577777778     0.422933333333     0          
O        O      0.707055555556     0.810577777778     0.412633333333     0          
O        O      0.991722222222     0.788044444444     0.364333333333     0          
O        O      0.674077777778     0.868688888889     0.756266666667     0          
O        O      0.992411111111     0.921688888889     0.745966666667     0          
O        O      0.729077777778     0.937588888889     0.746566666667     0          
O        O      0.685211111111     0.899155555556     0.697666666667     0          
O        O      0.827611111111     0.988588888889     0.812166666667     0          
O        O      0.799044444444     0.931422222222     0.770766666667     0          
O        O      0.835711111111     0.671455555556     0.874966666667     0          
O        O      0.799044444444     0.931388888889     0.874766666667     0          
O        O      0.812944444444     0.853722222222     0.675766666667     0          
O        O      0.777777777778     0.888888888889     0.822766666667     0          
O        O      0.797977777778     0.805388888889     0.756266666667     0          
O        O      0.744977777778     0.737388888889     0.745966666667     0          
O        O      0.729077777778     0.791488888889     0.746566666667     0          
O        O      0.767511111111     0.786055555556     0.697666666667     0          
O        O      0.678077777778     0.839022222222     0.812166666667     0          
O        O      0.735244444444     0.867622222222     0.770766666667     0          
O        O      0.995211111111     0.830922222222     0.874966666667     0          
O        O      0.735277777778     0.867655555556     0.874766666667     0          
O        O      0.812944444444     0.959222222222     0.675766666667     0          
O        O      0.861277777778     0.992588888889     0.756266666667     0          
O        O      0.929277777778     0.674255555556     0.745966666667     0          
O        O      0.875177777778     0.937588888889     0.746566666667     0          
O        O      0.880611111111     0.981455555556     0.697666666667     0          
O        O      0.827644444444     0.839055555556     0.812166666667     0          
O        O      0.799044444444     0.867622222222     0.770766666667     0          
O        O      0.835744444444     0.830955555556     0.874966666667     0          
O        O      0.799011111111     0.867622222222     0.874766666667     0          
O        O      0.707444444444     0.853722222222     0.675766666667     0          
O        O      0.757577777778     0.785188888889     0.577066666667     0          
O        O      0.810577777778     0.770188888889     0.587366666667     0          
O        O      0.826477777778     0.840188888889     0.586766666667     0          
O        O      0.788044444444     0.796322222222     0.635666666667     0          
O        O      0.877477777778     0.938722222222     0.521166666667     0          
O        O      0.820311111111     0.910155555556     0.562566666667     0          
O        O      0.893677777778     0.946822222222     0.458366666667     0          
O        O      0.820277777778     0.910155555556     0.458566666667     0          
O        O      0.742611111111     0.924055555556     0.657566666667     0          
O        O      0.777777777778     0.888888888889     0.510566666667     0          
O        O      0.881477777778     0.972388888889     0.577066666667     0          
O        O      0.896477777778     0.707055555556     0.587366666667     0          
O        O      0.826477777778     0.986288888889     0.586766666667     0          
O        O      0.870344444444     0.991722222222     0.635666666667     0          
O        O      0.727944444444     0.938755555556     0.521166666667     0          
O        O      0.756511111111     0.910155555556     0.562566666667     0          
O        O      0.719844444444     0.946855555556     0.458366666667     0          
O        O      0.756511111111     0.910122222222     0.458566666667     0          
O        O      0.742611111111     0.818555555556     0.657566666667     0          
O        O      0.694277777778     0.909088888889     0.577066666667     0          
O        O      0.959611111111     0.856088888889     0.587366666667     0          
O        O      0.680377777778     0.840188888889     0.586766666667     0          
O        O      0.674944444444     0.878622222222     0.635666666667     0          
O        O      0.727911111111     0.789188888889     0.521166666667     0          
O        O      0.756511111111     0.846355555556     0.562566666667     0          
O        O      0.719811111111     0.772988888889     0.458366666667     0          
O        O      0.756544444444     0.846388888889     0.458566666667     0          
O        O      0.848111111111     0.924055555556     0.657566666667     0          
O        O      0.881477777778     0.909088888889     0.577066666667     0          
O        O      0.896477777778     0.856088888889     0.587366666667     0          
O        O      0.870344444444     0.878622222222     0.635666666667     0          
O        O      0.757577777778     0.972388888889     0.577066666667     0          
O        O      0.810577777778     0.707055555556     0.587366666667     0          
O        O      0.788044444444     0.991722222222     0.635666666667     0          
O        O      0.694277777778     0.785188888889     0.577066666667     0          
O        O      0.959611111111     0.770188888889     0.587366666667     0          
O        O      0.674944444444     0.796322222222     0.635666666667     0          
O        O      0.797977777778     0.992588888889     0.756266666667     0          
O        O      0.744977777778     0.674255555556     0.745966666667     0          
O        O      0.767511111111     0.981455555556     0.697666666667     0          
O        O      0.674077777778     0.805388888889     0.756266666667     0          
O        O      0.992411111111     0.737388888889     0.745966666667     0          
O        O      0.685211111111     0.786055555556     0.697666666667     0          
O        O      0.861277777778     0.868688888889     0.756266666667     0          
O        O      0.929277777778     0.921688888889     0.745966666667     0          
O        O      0.880611111111     0.899155555556     0.697666666667     0          


