data_zeolite

_audit_creation_method RASPA-1.0
_audit_creation_date 2021-6-6
_audit_author_name ''

_cell_length_a    39.866
_cell_length_b    39.866
_cell_length_c    39.866
_cell_angle_alpha 90
_cell_angle_beta  90
_cell_angle_gamma 90
_cell_volume      63359

_symmetry_cell_setting          cubic
_symmetry_space_group_name_Hall 'P 1'
_symmetry_space_group_name_H-M  'P 1'
_symmetry_Int_Tables_number     1

_symmetry_equiv_pos_as_xyz 'x,y,z'

loop_
_atom_site_label
_atom_site_type_symbol
_atom_site_fract_x
_atom_site_fract_y
_atom_site_fract_z
_atom_site_charge
O        O      0.024250000000     0.024250000000     0.147600000000     0          
O        O      0.046550000000     0.000000000000     0.203450000000     0          
O        O      0.062500000000     0.062500000000     0.186050000000     0          
O        O      0.085800000000     0.085800000000     0.085800000000     0          
T        Si     0.034000000000     0.034000000000     0.185600000000     0          
T        Si     0.109050000000     0.109050000000     0.109050000000     0          
T        Si     0.062500000000     0.062500000000     0.062500000000     0          
O        O      0.475750000000     0.149250000000     0.272600000000     0          
O        O      0.000000000000     0.171550000000     0.328450000000     0          
O        O      0.437500000000     0.187500000000     0.311050000000     0          
O        O      0.414200000000     0.210800000000     0.210800000000     0          
T        Si     0.466000000000     0.159000000000     0.310600000000     0          
T        Si     0.390950000000     0.234050000000     0.234050000000     0          
T        Si     0.437500000000     0.187500000000     0.187500000000     0          
O        O      0.350750000000     0.100750000000     0.397600000000     0          
O        O      0.328450000000     0.125000000000     0.453450000000     0          
O        O      0.312500000000     0.062500000000     0.436050000000     0          
O        O      0.289200000000     0.039200000000     0.335800000000     0          
T        Si     0.341000000000     0.091000000000     0.435600000000     0          
T        Si     0.265950000000     0.015950000000     0.359050000000     0          
T        Si     0.312500000000     0.062500000000     0.312500000000     0          
O        O      0.399250000000     0.475750000000     0.022600000000     0          
O        O      0.375000000000     0.453450000000     0.078450000000     0          
O        O      0.437500000000     0.437500000000     0.061050000000     0          
O        O      0.460800000000     0.414200000000     0.460800000000     0          
T        Si     0.409000000000     0.466000000000     0.060600000000     0          
T        Si     0.484050000000     0.390950000000     0.484050000000     0          
T        Si     0.437500000000     0.437500000000     0.437500000000     0          
O        O      0.024250000000     0.100750000000     0.477400000000     0          
O        O      0.046550000000     0.125000000000     0.421550000000     0          
O        O      0.062500000000     0.062500000000     0.438950000000     0          
O        O      0.085800000000     0.039200000000     0.039200000000     0          
T        Si     0.034000000000     0.091000000000     0.439400000000     0          
T        Si     0.109050000000     0.015950000000     0.015950000000     0          
O        O      0.399250000000     0.149250000000     0.102400000000     0          
O        O      0.375000000000     0.171550000000     0.046550000000     0          
O        O      0.437500000000     0.187500000000     0.063950000000     0          
O        O      0.460800000000     0.210800000000     0.164200000000     0          
T        Si     0.409000000000     0.159000000000     0.064400000000     0          
T        Si     0.484050000000     0.234050000000     0.140950000000     0          
O        O      0.350750000000     0.024250000000     0.227400000000     0          
O        O      0.328450000000     0.000000000000     0.171550000000     0          
O        O      0.312500000000     0.062500000000     0.188950000000     0          
O        O      0.289200000000     0.085800000000     0.289200000000     0          
T        Si     0.341000000000     0.034000000000     0.189400000000     0          
T        Si     0.265950000000     0.109050000000     0.265950000000     0          
O        O      0.475750000000     0.475750000000     0.352400000000     0          
O        O      0.000000000000     0.453450000000     0.296550000000     0          
O        O      0.437500000000     0.437500000000     0.313950000000     0          
O        O      0.414200000000     0.414200000000     0.414200000000     0          
T        Si     0.466000000000     0.466000000000     0.314400000000     0          
T        Si     0.390950000000     0.390950000000     0.390950000000     0          
O        O      0.147600000000     0.024250000000     0.024250000000     0          
O        O      0.203450000000     0.046550000000     0.000000000000     0          
O        O      0.186050000000     0.062500000000     0.062500000000     0          
T        Si     0.185600000000     0.034000000000     0.034000000000     0          
O        O      0.475750000000     0.272600000000     0.149250000000     0          
O        O      0.453450000000     0.328450000000     0.125000000000     0          
O        O      0.437500000000     0.311050000000     0.187500000000     0          
T        Si     0.466000000000     0.310600000000     0.159000000000     0          
O        O      0.227400000000     0.100750000000     0.274250000000     0          
O        O      0.171550000000     0.078450000000     0.250000000000     0          
O        O      0.188950000000     0.062500000000     0.312500000000     0          
T        Si     0.189400000000     0.091000000000     0.284000000000     0          
O        O      0.399250000000     0.352400000000     0.399250000000     0          
O        O      0.421550000000     0.296550000000     0.375000000000     0          
O        O      0.437500000000     0.313950000000     0.437500000000     0          
T        Si     0.409000000000     0.314400000000     0.409000000000     0          
O        O      0.147600000000     0.100750000000     0.100750000000     0          
O        O      0.203450000000     0.078450000000     0.125000000000     0          
T        Si     0.185600000000     0.091000000000     0.091000000000     0          
O        O      0.399250000000     0.272600000000     0.225750000000     0          
O        O      0.421550000000     0.328450000000     0.250000000000     0          
T        Si     0.409000000000     0.310600000000     0.216000000000     0          
O        O      0.227400000000     0.024250000000     0.350750000000     0          
O        O      0.171550000000     0.046550000000     0.375000000000     0          
T        Si     0.189400000000     0.034000000000     0.341000000000     0          
O        O      0.475750000000     0.352400000000     0.475750000000     0          
O        O      0.453450000000     0.296550000000     0.000000000000     0          
T        Si     0.466000000000     0.314400000000     0.466000000000     0          
O        O      0.024250000000     0.147600000000     0.024250000000     0          
O        O      0.000000000000     0.203450000000     0.046550000000     0          
O        O      0.062500000000     0.186050000000     0.062500000000     0          
T        Si     0.034000000000     0.185600000000     0.034000000000     0          
O        O      0.274250000000     0.227400000000     0.100750000000     0          
O        O      0.250000000000     0.171550000000     0.078450000000     0          
O        O      0.312500000000     0.188950000000     0.062500000000     0          
O        O      0.335800000000     0.289200000000     0.039200000000     0          
T        Si     0.284000000000     0.189400000000     0.091000000000     0          
T        Si     0.359050000000     0.265950000000     0.015950000000     0          
T        Si     0.312500000000     0.312500000000     0.062500000000     0          
O        O      0.272600000000     0.399250000000     0.225750000000     0          
O        O      0.328450000000     0.375000000000     0.203450000000     0          
O        O      0.311050000000     0.437500000000     0.187500000000     0          
O        O      0.210800000000     0.460800000000     0.164200000000     0          
T        Si     0.310600000000     0.409000000000     0.216000000000     0          
T        Si     0.234050000000     0.484050000000     0.140950000000     0          
T        Si     0.187500000000     0.437500000000     0.187500000000     0          
O        O      0.100750000000     0.397600000000     0.350750000000     0          
O        O      0.125000000000     0.453450000000     0.328450000000     0          
O        O      0.062500000000     0.436050000000     0.312500000000     0          
O        O      0.039200000000     0.335800000000     0.289200000000     0          
T        Si     0.091000000000     0.435600000000     0.341000000000     0          
T        Si     0.015950000000     0.359050000000     0.265950000000     0          
T        Si     0.062500000000     0.312500000000     0.312500000000     0          
O        O      0.352400000000     0.225750000000     0.225750000000     0          
O        O      0.296550000000     0.250000000000     0.203450000000     0          
O        O      0.313950000000     0.187500000000     0.187500000000     0          
O        O      0.414200000000     0.164200000000     0.164200000000     0          
T        Si     0.314400000000     0.216000000000     0.216000000000     0          
T        Si     0.390950000000     0.140950000000     0.140950000000     0          
O        O      0.100750000000     0.477400000000     0.024250000000     0          
O        O      0.125000000000     0.421550000000     0.046550000000     0          
O        O      0.062500000000     0.438950000000     0.062500000000     0          
O        O      0.039200000000     0.039200000000     0.085800000000     0          
T        Si     0.091000000000     0.439400000000     0.034000000000     0          
T        Si     0.015950000000     0.015950000000     0.109050000000     0          
O        O      0.272600000000     0.475750000000     0.149250000000     0          
O        O      0.210800000000     0.414200000000     0.210800000000     0          
T        Si     0.310600000000     0.466000000000     0.159000000000     0          
T        Si     0.234050000000     0.390950000000     0.234050000000     0          
O        O      0.102400000000     0.149250000000     0.399250000000     0          
O        O      0.063950000000     0.187500000000     0.437500000000     0          
O        O      0.164200000000     0.210800000000     0.460800000000     0          
T        Si     0.064400000000     0.159000000000     0.409000000000     0          
T        Si     0.140950000000     0.234050000000     0.484050000000     0          
T        Si     0.187500000000     0.187500000000     0.437500000000     0          
O        O      0.453450000000     0.000000000000     0.296550000000     0          
O        O      0.024250000000     0.350750000000     0.227400000000     0          
O        O      0.000000000000     0.328450000000     0.171550000000     0          
O        O      0.062500000000     0.312500000000     0.188950000000     0          
O        O      0.085800000000     0.289200000000     0.289200000000     0          
T        Si     0.034000000000     0.341000000000     0.189400000000     0          
T        Si     0.109050000000     0.265950000000     0.265950000000     0          
O        O      0.149250000000     0.399250000000     0.102400000000     0          
O        O      0.171550000000     0.375000000000     0.046550000000     0          
O        O      0.187500000000     0.437500000000     0.063950000000     0          
T        Si     0.159000000000     0.409000000000     0.064400000000     0          
O        O      0.100750000000     0.024250000000     0.477400000000     0          
O        O      0.125000000000     0.046550000000     0.421550000000     0          
O        O      0.039200000000     0.085800000000     0.039200000000     0          
T        Si     0.091000000000     0.034000000000     0.439400000000     0          
T        Si     0.015950000000     0.109050000000     0.015950000000     0          
O        O      0.475750000000     0.399250000000     0.022600000000     0          
O        O      0.453450000000     0.375000000000     0.078450000000     0          
O        O      0.414200000000     0.460800000000     0.460800000000     0          
T        Si     0.466000000000     0.409000000000     0.060600000000     0          
T        Si     0.390950000000     0.484050000000     0.484050000000     0          
O        O      0.100750000000     0.350750000000     0.397600000000     0          
O        O      0.125000000000     0.328450000000     0.453450000000     0          
O        O      0.062500000000     0.312500000000     0.436050000000     0          
O        O      0.039200000000     0.289200000000     0.335800000000     0          
T        Si     0.091000000000     0.341000000000     0.435600000000     0          
T        Si     0.015950000000     0.265950000000     0.359050000000     0          
O        O      0.149250000000     0.475750000000     0.272600000000     0          
O        O      0.171550000000     0.000000000000     0.328450000000     0          
O        O      0.187500000000     0.437500000000     0.311050000000     0          
T        Si     0.159000000000     0.466000000000     0.310600000000     0          
O        O      0.000000000000     0.046550000000     0.203450000000     0          
O        O      0.352400000000     0.475750000000     0.475750000000     0          
O        O      0.296550000000     0.453450000000     0.000000000000     0          
O        O      0.313950000000     0.437500000000     0.437500000000     0          
T        Si     0.314400000000     0.466000000000     0.466000000000     0          
O        O      0.024250000000     0.227400000000     0.350750000000     0          
O        O      0.046550000000     0.171550000000     0.375000000000     0          
O        O      0.062500000000     0.188950000000     0.312500000000     0          
T        Si     0.034000000000     0.189400000000     0.341000000000     0          
O        O      0.328450000000     0.421550000000     0.250000000000     0          
O        O      0.100750000000     0.147600000000     0.100750000000     0          
O        O      0.078450000000     0.203450000000     0.125000000000     0          
T        Si     0.091000000000     0.185600000000     0.091000000000     0          
O        O      0.352400000000     0.399250000000     0.399250000000     0          
O        O      0.296550000000     0.421550000000     0.375000000000     0          
T        Si     0.314400000000     0.409000000000     0.409000000000     0          
O        O      0.100750000000     0.227400000000     0.274250000000     0          
O        O      0.078450000000     0.171550000000     0.250000000000     0          
T        Si     0.091000000000     0.189400000000     0.284000000000     0          
O        O      0.328450000000     0.453450000000     0.125000000000     0          
O        O      0.046550000000     0.203450000000     0.000000000000     0          
O        O      0.000000000000     0.296550000000     0.453450000000     0          
O        O      0.225750000000     0.272600000000     0.399250000000     0          
O        O      0.250000000000     0.328450000000     0.421550000000     0          
O        O      0.187500000000     0.311050000000     0.437500000000     0          
T        Si     0.216000000000     0.310600000000     0.409000000000     0          
O        O      0.171550000000     0.125000000000     0.296550000000     0          
O        O      0.399250000000     0.102400000000     0.149250000000     0          
O        O      0.375000000000     0.046550000000     0.171550000000     0          
O        O      0.437500000000     0.063950000000     0.187500000000     0          
O        O      0.460800000000     0.164200000000     0.210800000000     0          
T        Si     0.409000000000     0.064400000000     0.159000000000     0          
T        Si     0.484050000000     0.140950000000     0.234050000000     0          
O        O      0.147600000000     0.274250000000     0.274250000000     0          
O        O      0.203450000000     0.250000000000     0.296550000000     0          
O        O      0.186050000000     0.312500000000     0.312500000000     0          
O        O      0.085800000000     0.335800000000     0.335800000000     0          
T        Si     0.185600000000     0.284000000000     0.284000000000     0          
T        Si     0.109050000000     0.359050000000     0.359050000000     0          
O        O      0.399250000000     0.022600000000     0.475750000000     0          
O        O      0.375000000000     0.078450000000     0.453450000000     0          
O        O      0.437500000000     0.061050000000     0.437500000000     0          
O        O      0.460800000000     0.460800000000     0.414200000000     0          
T        Si     0.409000000000     0.060600000000     0.466000000000     0          
T        Si     0.484050000000     0.484050000000     0.390950000000     0          
O        O      0.397600000000     0.350750000000     0.100750000000     0          
O        O      0.436050000000     0.312500000000     0.062500000000     0          
T        Si     0.435600000000     0.341000000000     0.091000000000     0          
O        O      0.024250000000     0.274250000000     0.397600000000     0          
O        O      0.046550000000     0.250000000000     0.453450000000     0          
T        Si     0.034000000000     0.284000000000     0.435600000000     0          
O        O      0.000000000000     0.421550000000     0.078450000000     0          
O        O      0.350750000000     0.350750000000     0.147600000000     0          
O        O      0.312500000000     0.312500000000     0.186050000000     0          
O        O      0.289200000000     0.289200000000     0.085800000000     0          
T        Si     0.341000000000     0.341000000000     0.185600000000     0          
T        Si     0.265950000000     0.265950000000     0.109050000000     0          
O        O      0.399250000000     0.225750000000     0.272600000000     0          
O        O      0.375000000000     0.203450000000     0.328450000000     0          
T        Si     0.409000000000     0.216000000000     0.310600000000     0          
O        O      0.046550000000     0.375000000000     0.171550000000     0          
O        O      0.399250000000     0.399250000000     0.352400000000     0          
O        O      0.375000000000     0.421550000000     0.296550000000     0          
T        Si     0.409000000000     0.409000000000     0.314400000000     0          
O        O      0.350750000000     0.274250000000     0.477400000000     0          
O        O      0.328450000000     0.250000000000     0.421550000000     0          
O        O      0.312500000000     0.312500000000     0.438950000000     0          
O        O      0.289200000000     0.335800000000     0.039200000000     0          
T        Si     0.341000000000     0.284000000000     0.439400000000     0          
T        Si     0.265950000000     0.359050000000     0.015950000000     0          
O        O      0.475750000000     0.225750000000     0.102400000000     0          
T        Si     0.466000000000     0.216000000000     0.064400000000     0          
O        O      0.203450000000     0.296550000000     0.250000000000     0          
O        O      0.475750000000     0.022600000000     0.399250000000     0          
O        O      0.453450000000     0.078450000000     0.375000000000     0          
T        Si     0.466000000000     0.060600000000     0.409000000000     0          
O        O      0.227400000000     0.350750000000     0.024250000000     0          
O        O      0.171550000000     0.328450000000     0.000000000000     0          
O        O      0.188950000000     0.312500000000     0.062500000000     0          
T        Si     0.189400000000     0.341000000000     0.034000000000     0          
O        O      0.421550000000     0.046550000000     0.125000000000     0          
O        O      0.147600000000     0.350750000000     0.350750000000     0          
O        O      0.203450000000     0.328450000000     0.375000000000     0          
T        Si     0.185600000000     0.341000000000     0.341000000000     0          
O        O      0.421550000000     0.078450000000     0.000000000000     0          
O        O      0.227400000000     0.274250000000     0.100750000000     0          
O        O      0.171550000000     0.296550000000     0.125000000000     0          
T        Si     0.189400000000     0.284000000000     0.091000000000     0          
O        O      0.475750000000     0.102400000000     0.225750000000     0          
O        O      0.453450000000     0.046550000000     0.250000000000     0          
T        Si     0.466000000000     0.064400000000     0.216000000000     0          
O        O      0.024250000000     0.397600000000     0.274250000000     0          
T        Si     0.034000000000     0.435600000000     0.284000000000     0          
O        O      0.274250000000     0.477400000000     0.350750000000     0          
O        O      0.250000000000     0.421550000000     0.328450000000     0          
O        O      0.312500000000     0.438950000000     0.312500000000     0          
O        O      0.335800000000     0.039200000000     0.289200000000     0          
T        Si     0.284000000000     0.439400000000     0.341000000000     0          
T        Si     0.359050000000     0.015950000000     0.265950000000     0          
O        O      0.272600000000     0.149250000000     0.475750000000     0          
O        O      0.311050000000     0.187500000000     0.437500000000     0          
O        O      0.210800000000     0.210800000000     0.414200000000     0          
T        Si     0.310600000000     0.159000000000     0.466000000000     0          
T        Si     0.234050000000     0.234050000000     0.390950000000     0          
O        O      0.125000000000     0.203450000000     0.078450000000     0          
O        O      0.296550000000     0.000000000000     0.453450000000     0          
O        O      0.125000000000     0.171550000000     0.296550000000     0          
O        O      0.272600000000     0.225750000000     0.399250000000     0          
O        O      0.210800000000     0.164200000000     0.460800000000     0          
T        Si     0.310600000000     0.216000000000     0.409000000000     0          
T        Si     0.234050000000     0.140950000000     0.484050000000     0          
O        O      0.102400000000     0.399250000000     0.149250000000     0          
O        O      0.063950000000     0.437500000000     0.187500000000     0          
O        O      0.164200000000     0.460800000000     0.210800000000     0          
T        Si     0.064400000000     0.409000000000     0.159000000000     0          
T        Si     0.140950000000     0.484050000000     0.234050000000     0          
O        O      0.453450000000     0.250000000000     0.046550000000     0          
O        O      0.000000000000     0.078450000000     0.421550000000     0          
O        O      0.149250000000     0.149250000000     0.352400000000     0          
O        O      0.187500000000     0.187500000000     0.313950000000     0          
T        Si     0.159000000000     0.159000000000     0.314400000000     0          
O        O      0.100750000000     0.274250000000     0.227400000000     0          
O        O      0.125000000000     0.296550000000     0.171550000000     0          
T        Si     0.091000000000     0.284000000000     0.189400000000     0          
O        O      0.453450000000     0.125000000000     0.328450000000     0          
O        O      0.100750000000     0.100750000000     0.147600000000     0          
O        O      0.125000000000     0.078450000000     0.203450000000     0          
T        Si     0.091000000000     0.091000000000     0.185600000000     0          
O        O      0.149250000000     0.225750000000     0.022600000000     0          
O        O      0.171550000000     0.250000000000     0.078450000000     0          
O        O      0.187500000000     0.187500000000     0.061050000000     0          
T        Si     0.159000000000     0.216000000000     0.060600000000     0          
O        O      0.296550000000     0.203450000000     0.250000000000     0          
O        O      0.024250000000     0.477400000000     0.100750000000     0          
O        O      0.046550000000     0.421550000000     0.125000000000     0          
T        Si     0.034000000000     0.439400000000     0.091000000000     0          
O        O      0.328450000000     0.171550000000     0.000000000000     0          
O        O      0.078450000000     0.453450000000     0.375000000000     0          
O        O      0.352400000000     0.149250000000     0.149250000000     0          
O        O      0.296550000000     0.171550000000     0.125000000000     0          
T        Si     0.314400000000     0.159000000000     0.159000000000     0          
O        O      0.078450000000     0.421550000000     0.000000000000     0          
O        O      0.328450000000     0.203450000000     0.375000000000     0          
O        O      0.046550000000     0.453450000000     0.250000000000     0          
O        O      0.225750000000     0.022600000000     0.149250000000     0          
O        O      0.250000000000     0.078450000000     0.171550000000     0          
O        O      0.187500000000     0.061050000000     0.187500000000     0          
T        Si     0.216000000000     0.060600000000     0.159000000000     0          
O        O      0.375000000000     0.296550000000     0.421550000000     0          
O        O      0.203450000000     0.000000000000     0.046550000000     0          
O        O      0.375000000000     0.328450000000     0.203450000000     0          
O        O      0.397600000000     0.100750000000     0.350750000000     0          
O        O      0.436050000000     0.062500000000     0.312500000000     0          
T        Si     0.435600000000     0.091000000000     0.341000000000     0          
O        O      0.274250000000     0.024250000000     0.397600000000     0          
O        O      0.335800000000     0.085800000000     0.335800000000     0          
T        Si     0.284000000000     0.034000000000     0.435600000000     0          
T        Si     0.359050000000     0.109050000000     0.359050000000     0          
O        O      0.225750000000     0.149250000000     0.022600000000     0          
T        Si     0.216000000000     0.159000000000     0.060600000000     0          
O        O      0.078450000000     0.125000000000     0.203450000000     0          
O        O      0.274250000000     0.100750000000     0.227400000000     0          
O        O      0.296550000000     0.125000000000     0.171550000000     0          
T        Si     0.284000000000     0.091000000000     0.189400000000     0          
O        O      0.078450000000     0.000000000000     0.421550000000     0          
O        O      0.225750000000     0.475750000000     0.102400000000     0          
O        O      0.250000000000     0.453450000000     0.046550000000     0          
O        O      0.164200000000     0.414200000000     0.164200000000     0          
T        Si     0.216000000000     0.466000000000     0.064400000000     0          
T        Si     0.140950000000     0.390950000000     0.140950000000     0          
O        O      0.397600000000     0.024250000000     0.274250000000     0          
T        Si     0.435600000000     0.034000000000     0.284000000000     0          
O        O      0.477400000000     0.100750000000     0.024250000000     0          
O        O      0.438950000000     0.062500000000     0.062500000000     0          
T        Si     0.439400000000     0.091000000000     0.034000000000     0          
O        O      0.149250000000     0.352400000000     0.149250000000     0          
O        O      0.187500000000     0.313950000000     0.187500000000     0          
T        Si     0.159000000000     0.314400000000     0.159000000000     0          
O        O      0.149250000000     0.272600000000     0.475750000000     0          
T        Si     0.159000000000     0.310600000000     0.466000000000     0          
O        O      0.477400000000     0.024250000000     0.100750000000     0          
T        Si     0.439400000000     0.034000000000     0.091000000000     0          
O        O      0.225750000000     0.352400000000     0.225750000000     0          
T        Si     0.216000000000     0.314400000000     0.216000000000     0          
O        O      0.274250000000     0.147600000000     0.274250000000     0          
O        O      0.250000000000     0.203450000000     0.296550000000     0          
O        O      0.312500000000     0.186050000000     0.312500000000     0          
T        Si     0.284000000000     0.185600000000     0.284000000000     0          
O        O      0.022600000000     0.399250000000     0.475750000000     0          
O        O      0.078450000000     0.375000000000     0.453450000000     0          
O        O      0.061050000000     0.437500000000     0.437500000000     0          
T        Si     0.060600000000     0.409000000000     0.466000000000     0          
O        O      0.350750000000     0.397600000000     0.100750000000     0          
O        O      0.312500000000     0.436050000000     0.062500000000     0          
T        Si     0.341000000000     0.435600000000     0.091000000000     0          
O        O      0.102400000000     0.225750000000     0.475750000000     0          
O        O      0.164200000000     0.164200000000     0.414200000000     0          
T        Si     0.064400000000     0.216000000000     0.466000000000     0          
T        Si     0.140950000000     0.140950000000     0.390950000000     0          
O        O      0.350750000000     0.477400000000     0.274250000000     0          
T        Si     0.341000000000     0.439400000000     0.284000000000     0          
O        O      0.022600000000     0.475750000000     0.399250000000     0          
T        Si     0.060600000000     0.466000000000     0.409000000000     0          
O        O      0.274250000000     0.350750000000     0.477400000000     0          
T        Si     0.284000000000     0.341000000000     0.439400000000     0          
O        O      0.421550000000     0.375000000000     0.296550000000     0          
O        O      0.225750000000     0.399250000000     0.272600000000     0          
O        O      0.203450000000     0.375000000000     0.328450000000     0          
T        Si     0.216000000000     0.409000000000     0.310600000000     0          
O        O      0.421550000000     0.000000000000     0.078450000000     0          
O        O      0.250000000000     0.046550000000     0.453450000000     0          
O        O      0.102400000000     0.475750000000     0.225750000000     0          
T        Si     0.064400000000     0.466000000000     0.216000000000     0          
O        O      0.350750000000     0.147600000000     0.350750000000     0          
T        Si     0.341000000000     0.185600000000     0.341000000000     0          
O        O      0.350750000000     0.227400000000     0.024250000000     0          
T        Si     0.341000000000     0.189400000000     0.034000000000     0          
O        O      0.250000000000     0.296550000000     0.203450000000     0          
O        O      0.421550000000     0.125000000000     0.046550000000     0          
O        O      0.149250000000     0.102400000000     0.399250000000     0          
O        O      0.187500000000     0.063950000000     0.437500000000     0          
T        Si     0.159000000000     0.064400000000     0.409000000000     0          
O        O      0.397600000000     0.274250000000     0.024250000000     0          
O        O      0.335800000000     0.335800000000     0.085800000000     0          
T        Si     0.435600000000     0.284000000000     0.034000000000     0          
T        Si     0.359050000000     0.359050000000     0.109050000000     0          
O        O      0.149250000000     0.022600000000     0.225750000000     0          
T        Si     0.159000000000     0.060600000000     0.216000000000     0          
O        O      0.274250000000     0.274250000000     0.147600000000     0          
T        Si     0.284000000000     0.284000000000     0.185600000000     0          
O        O      0.296550000000     0.375000000000     0.421550000000     0          
O        O      0.078450000000     0.250000000000     0.171550000000     0          
O        O      0.225750000000     0.225750000000     0.352400000000     0          
T        Si     0.216000000000     0.216000000000     0.314400000000     0          
O        O      0.477400000000     0.350750000000     0.274250000000     0          
O        O      0.438950000000     0.312500000000     0.312500000000     0          
T        Si     0.439400000000     0.341000000000     0.284000000000     0          
O        O      0.477400000000     0.274250000000     0.350750000000     0          
T        Si     0.439400000000     0.284000000000     0.341000000000     0          
O        O      0.225750000000     0.102400000000     0.475750000000     0          
T        Si     0.216000000000     0.064400000000     0.466000000000     0          
O        O      0.274250000000     0.397600000000     0.024250000000     0          
T        Si     0.284000000000     0.435600000000     0.034000000000     0          
O        O      0.022600000000     0.149250000000     0.225750000000     0          
O        O      0.061050000000     0.187500000000     0.187500000000     0          
T        Si     0.060600000000     0.159000000000     0.216000000000     0          
O        O      0.022600000000     0.225750000000     0.149250000000     0          
T        Si     0.060600000000     0.216000000000     0.159000000000     0          
O        O      0.203450000000     0.125000000000     0.078450000000     0          
O        O      0.421550000000     0.250000000000     0.328450000000     0          
O        O      0.024250000000     0.024250000000     0.647600000000     0          
O        O      0.046550000000     0.000000000000     0.703450000000     0          
O        O      0.062500000000     0.062500000000     0.686050000000     0          
O        O      0.085800000000     0.085800000000     0.585800000000     0          
T        Si     0.034000000000     0.034000000000     0.685600000000     0          
T        Si     0.109050000000     0.109050000000     0.609050000000     0          
T        Si     0.062500000000     0.062500000000     0.562500000000     0          
O        O      0.475750000000     0.149250000000     0.772600000000     0          
O        O      0.000000000000     0.171550000000     0.828450000000     0          
O        O      0.437500000000     0.187500000000     0.811050000000     0          
O        O      0.414200000000     0.210800000000     0.710800000000     0          
T        Si     0.466000000000     0.159000000000     0.810600000000     0          
T        Si     0.390950000000     0.234050000000     0.734050000000     0          
T        Si     0.437500000000     0.187500000000     0.687500000000     0          
O        O      0.350750000000     0.100750000000     0.897600000000     0          
O        O      0.328450000000     0.125000000000     0.953450000000     0          
O        O      0.312500000000     0.062500000000     0.936050000000     0          
O        O      0.289200000000     0.039200000000     0.835800000000     0          
T        Si     0.341000000000     0.091000000000     0.935600000000     0          
T        Si     0.265950000000     0.015950000000     0.859050000000     0          
T        Si     0.312500000000     0.062500000000     0.812500000000     0          
O        O      0.399250000000     0.475750000000     0.522600000000     0          
O        O      0.375000000000     0.453450000000     0.578450000000     0          
O        O      0.437500000000     0.437500000000     0.561050000000     0          
O        O      0.460800000000     0.414200000000     0.960800000000     0          
T        Si     0.409000000000     0.466000000000     0.560600000000     0          
T        Si     0.484050000000     0.390950000000     0.984050000000     0          
T        Si     0.437500000000     0.437500000000     0.937500000000     0          
O        O      0.024250000000     0.100750000000     0.977400000000     0          
O        O      0.046550000000     0.125000000000     0.921550000000     0          
O        O      0.062500000000     0.062500000000     0.938950000000     0          
O        O      0.085800000000     0.039200000000     0.539200000000     0          
T        Si     0.034000000000     0.091000000000     0.939400000000     0          
T        Si     0.109050000000     0.015950000000     0.515950000000     0          
O        O      0.399250000000     0.149250000000     0.602400000000     0          
O        O      0.375000000000     0.171550000000     0.546550000000     0          
O        O      0.437500000000     0.187500000000     0.563950000000     0          
O        O      0.460800000000     0.210800000000     0.664200000000     0          
T        Si     0.409000000000     0.159000000000     0.564400000000     0          
T        Si     0.484050000000     0.234050000000     0.640950000000     0          
O        O      0.350750000000     0.024250000000     0.727400000000     0          
O        O      0.328450000000     0.000000000000     0.671550000000     0          
O        O      0.312500000000     0.062500000000     0.688950000000     0          
O        O      0.289200000000     0.085800000000     0.789200000000     0          
T        Si     0.341000000000     0.034000000000     0.689400000000     0          
T        Si     0.265950000000     0.109050000000     0.765950000000     0          
O        O      0.475750000000     0.475750000000     0.852400000000     0          
O        O      0.000000000000     0.453450000000     0.796550000000     0          
O        O      0.437500000000     0.437500000000     0.813950000000     0          
O        O      0.414200000000     0.414200000000     0.914200000000     0          
T        Si     0.466000000000     0.466000000000     0.814400000000     0          
T        Si     0.390950000000     0.390950000000     0.890950000000     0          
O        O      0.147600000000     0.024250000000     0.524250000000     0          
O        O      0.203450000000     0.046550000000     0.500000000000     0          
O        O      0.186050000000     0.062500000000     0.562500000000     0          
T        Si     0.185600000000     0.034000000000     0.534000000000     0          
O        O      0.475750000000     0.272600000000     0.649250000000     0          
O        O      0.453450000000     0.328450000000     0.625000000000     0          
O        O      0.437500000000     0.311050000000     0.687500000000     0          
T        Si     0.466000000000     0.310600000000     0.659000000000     0          
O        O      0.227400000000     0.100750000000     0.774250000000     0          
O        O      0.171550000000     0.078450000000     0.750000000000     0          
O        O      0.188950000000     0.062500000000     0.812500000000     0          
T        Si     0.189400000000     0.091000000000     0.784000000000     0          
O        O      0.399250000000     0.352400000000     0.899250000000     0          
O        O      0.421550000000     0.296550000000     0.875000000000     0          
O        O      0.437500000000     0.313950000000     0.937500000000     0          
T        Si     0.409000000000     0.314400000000     0.909000000000     0          
O        O      0.147600000000     0.100750000000     0.600750000000     0          
O        O      0.203450000000     0.078450000000     0.625000000000     0          
T        Si     0.185600000000     0.091000000000     0.591000000000     0          
O        O      0.399250000000     0.272600000000     0.725750000000     0          
O        O      0.421550000000     0.328450000000     0.750000000000     0          
T        Si     0.409000000000     0.310600000000     0.716000000000     0          
O        O      0.227400000000     0.024250000000     0.850750000000     0          
O        O      0.171550000000     0.046550000000     0.875000000000     0          
T        Si     0.189400000000     0.034000000000     0.841000000000     0          
O        O      0.475750000000     0.352400000000     0.975750000000     0          
O        O      0.453450000000     0.296550000000     0.500000000000     0          
T        Si     0.466000000000     0.314400000000     0.966000000000     0          
O        O      0.024250000000     0.147600000000     0.524250000000     0          
O        O      0.000000000000     0.203450000000     0.546550000000     0          
O        O      0.062500000000     0.186050000000     0.562500000000     0          
T        Si     0.034000000000     0.185600000000     0.534000000000     0          
O        O      0.274250000000     0.227400000000     0.600750000000     0          
O        O      0.250000000000     0.171550000000     0.578450000000     0          
O        O      0.312500000000     0.188950000000     0.562500000000     0          
O        O      0.335800000000     0.289200000000     0.539200000000     0          
T        Si     0.284000000000     0.189400000000     0.591000000000     0          
T        Si     0.359050000000     0.265950000000     0.515950000000     0          
T        Si     0.312500000000     0.312500000000     0.562500000000     0          
O        O      0.272600000000     0.399250000000     0.725750000000     0          
O        O      0.328450000000     0.375000000000     0.703450000000     0          
O        O      0.311050000000     0.437500000000     0.687500000000     0          
O        O      0.210800000000     0.460800000000     0.664200000000     0          
T        Si     0.310600000000     0.409000000000     0.716000000000     0          
T        Si     0.234050000000     0.484050000000     0.640950000000     0          
T        Si     0.187500000000     0.437500000000     0.687500000000     0          
O        O      0.100750000000     0.397600000000     0.850750000000     0          
O        O      0.125000000000     0.453450000000     0.828450000000     0          
O        O      0.062500000000     0.436050000000     0.812500000000     0          
O        O      0.039200000000     0.335800000000     0.789200000000     0          
T        Si     0.091000000000     0.435600000000     0.841000000000     0          
T        Si     0.015950000000     0.359050000000     0.765950000000     0          
T        Si     0.062500000000     0.312500000000     0.812500000000     0          
O        O      0.352400000000     0.225750000000     0.725750000000     0          
O        O      0.296550000000     0.250000000000     0.703450000000     0          
O        O      0.313950000000     0.187500000000     0.687500000000     0          
O        O      0.414200000000     0.164200000000     0.664200000000     0          
T        Si     0.314400000000     0.216000000000     0.716000000000     0          
T        Si     0.390950000000     0.140950000000     0.640950000000     0          
O        O      0.100750000000     0.477400000000     0.524250000000     0          
O        O      0.125000000000     0.421550000000     0.546550000000     0          
O        O      0.062500000000     0.438950000000     0.562500000000     0          
O        O      0.039200000000     0.039200000000     0.585800000000     0          
T        Si     0.091000000000     0.439400000000     0.534000000000     0          
T        Si     0.015950000000     0.015950000000     0.609050000000     0          
O        O      0.272600000000     0.475750000000     0.649250000000     0          
O        O      0.210800000000     0.414200000000     0.710800000000     0          
T        Si     0.310600000000     0.466000000000     0.659000000000     0          
T        Si     0.234050000000     0.390950000000     0.734050000000     0          
O        O      0.102400000000     0.149250000000     0.899250000000     0          
O        O      0.063950000000     0.187500000000     0.937500000000     0          
O        O      0.164200000000     0.210800000000     0.960800000000     0          
T        Si     0.064400000000     0.159000000000     0.909000000000     0          
T        Si     0.140950000000     0.234050000000     0.984050000000     0          
T        Si     0.187500000000     0.187500000000     0.937500000000     0          
O        O      0.453450000000     0.000000000000     0.796550000000     0          
O        O      0.024250000000     0.350750000000     0.727400000000     0          
O        O      0.000000000000     0.328450000000     0.671550000000     0          
O        O      0.062500000000     0.312500000000     0.688950000000     0          
O        O      0.085800000000     0.289200000000     0.789200000000     0          
T        Si     0.034000000000     0.341000000000     0.689400000000     0          
T        Si     0.109050000000     0.265950000000     0.765950000000     0          
O        O      0.149250000000     0.399250000000     0.602400000000     0          
O        O      0.171550000000     0.375000000000     0.546550000000     0          
O        O      0.187500000000     0.437500000000     0.563950000000     0          
T        Si     0.159000000000     0.409000000000     0.564400000000     0          
O        O      0.100750000000     0.024250000000     0.977400000000     0          
O        O      0.125000000000     0.046550000000     0.921550000000     0          
O        O      0.039200000000     0.085800000000     0.539200000000     0          
T        Si     0.091000000000     0.034000000000     0.939400000000     0          
T        Si     0.015950000000     0.109050000000     0.515950000000     0          
O        O      0.475750000000     0.399250000000     0.522600000000     0          
O        O      0.453450000000     0.375000000000     0.578450000000     0          
O        O      0.414200000000     0.460800000000     0.960800000000     0          
T        Si     0.466000000000     0.409000000000     0.560600000000     0          
T        Si     0.390950000000     0.484050000000     0.984050000000     0          
O        O      0.100750000000     0.350750000000     0.897600000000     0          
O        O      0.125000000000     0.328450000000     0.953450000000     0          
O        O      0.062500000000     0.312500000000     0.936050000000     0          
O        O      0.039200000000     0.289200000000     0.835800000000     0          
T        Si     0.091000000000     0.341000000000     0.935600000000     0          
T        Si     0.015950000000     0.265950000000     0.859050000000     0          
O        O      0.149250000000     0.475750000000     0.772600000000     0          
O        O      0.171550000000     0.000000000000     0.828450000000     0          
O        O      0.187500000000     0.437500000000     0.811050000000     0          
T        Si     0.159000000000     0.466000000000     0.810600000000     0          
O        O      0.000000000000     0.046550000000     0.703450000000     0          
O        O      0.352400000000     0.475750000000     0.975750000000     0          
O        O      0.296550000000     0.453450000000     0.500000000000     0          
O        O      0.313950000000     0.437500000000     0.937500000000     0          
T        Si     0.314400000000     0.466000000000     0.966000000000     0          
O        O      0.024250000000     0.227400000000     0.850750000000     0          
O        O      0.046550000000     0.171550000000     0.875000000000     0          
O        O      0.062500000000     0.188950000000     0.812500000000     0          
T        Si     0.034000000000     0.189400000000     0.841000000000     0          
O        O      0.328450000000     0.421550000000     0.750000000000     0          
O        O      0.100750000000     0.147600000000     0.600750000000     0          
O        O      0.078450000000     0.203450000000     0.625000000000     0          
T        Si     0.091000000000     0.185600000000     0.591000000000     0          
O        O      0.352400000000     0.399250000000     0.899250000000     0          
O        O      0.296550000000     0.421550000000     0.875000000000     0          
T        Si     0.314400000000     0.409000000000     0.909000000000     0          
O        O      0.100750000000     0.227400000000     0.774250000000     0          
O        O      0.078450000000     0.171550000000     0.750000000000     0          
T        Si     0.091000000000     0.189400000000     0.784000000000     0          
O        O      0.328450000000     0.453450000000     0.625000000000     0          
O        O      0.046550000000     0.203450000000     0.500000000000     0          
O        O      0.000000000000     0.296550000000     0.953450000000     0          
O        O      0.225750000000     0.272600000000     0.899250000000     0          
O        O      0.250000000000     0.328450000000     0.921550000000     0          
O        O      0.187500000000     0.311050000000     0.937500000000     0          
T        Si     0.216000000000     0.310600000000     0.909000000000     0          
O        O      0.171550000000     0.125000000000     0.796550000000     0          
O        O      0.399250000000     0.102400000000     0.649250000000     0          
O        O      0.375000000000     0.046550000000     0.671550000000     0          
O        O      0.437500000000     0.063950000000     0.687500000000     0          
O        O      0.460800000000     0.164200000000     0.710800000000     0          
T        Si     0.409000000000     0.064400000000     0.659000000000     0          
T        Si     0.484050000000     0.140950000000     0.734050000000     0          
O        O      0.147600000000     0.274250000000     0.774250000000     0          
O        O      0.203450000000     0.250000000000     0.796550000000     0          
O        O      0.186050000000     0.312500000000     0.812500000000     0          
O        O      0.085800000000     0.335800000000     0.835800000000     0          
T        Si     0.185600000000     0.284000000000     0.784000000000     0          
T        Si     0.109050000000     0.359050000000     0.859050000000     0          
O        O      0.399250000000     0.022600000000     0.975750000000     0          
O        O      0.375000000000     0.078450000000     0.953450000000     0          
O        O      0.437500000000     0.061050000000     0.937500000000     0          
O        O      0.460800000000     0.460800000000     0.914200000000     0          
T        Si     0.409000000000     0.060600000000     0.966000000000     0          
T        Si     0.484050000000     0.484050000000     0.890950000000     0          
O        O      0.397600000000     0.350750000000     0.600750000000     0          
O        O      0.436050000000     0.312500000000     0.562500000000     0          
T        Si     0.435600000000     0.341000000000     0.591000000000     0          
O        O      0.024250000000     0.274250000000     0.897600000000     0          
O        O      0.046550000000     0.250000000000     0.953450000000     0          
T        Si     0.034000000000     0.284000000000     0.935600000000     0          
O        O      0.000000000000     0.421550000000     0.578450000000     0          
O        O      0.350750000000     0.350750000000     0.647600000000     0          
O        O      0.312500000000     0.312500000000     0.686050000000     0          
O        O      0.289200000000     0.289200000000     0.585800000000     0          
T        Si     0.341000000000     0.341000000000     0.685600000000     0          
T        Si     0.265950000000     0.265950000000     0.609050000000     0          
O        O      0.399250000000     0.225750000000     0.772600000000     0          
O        O      0.375000000000     0.203450000000     0.828450000000     0          
T        Si     0.409000000000     0.216000000000     0.810600000000     0          
O        O      0.046550000000     0.375000000000     0.671550000000     0          
O        O      0.399250000000     0.399250000000     0.852400000000     0          
O        O      0.375000000000     0.421550000000     0.796550000000     0          
T        Si     0.409000000000     0.409000000000     0.814400000000     0          
O        O      0.350750000000     0.274250000000     0.977400000000     0          
O        O      0.328450000000     0.250000000000     0.921550000000     0          
O        O      0.312500000000     0.312500000000     0.938950000000     0          
O        O      0.289200000000     0.335800000000     0.539200000000     0          
T        Si     0.341000000000     0.284000000000     0.939400000000     0          
T        Si     0.265950000000     0.359050000000     0.515950000000     0          
O        O      0.475750000000     0.225750000000     0.602400000000     0          
T        Si     0.466000000000     0.216000000000     0.564400000000     0          
O        O      0.203450000000     0.296550000000     0.750000000000     0          
O        O      0.475750000000     0.022600000000     0.899250000000     0          
O        O      0.453450000000     0.078450000000     0.875000000000     0          
T        Si     0.466000000000     0.060600000000     0.909000000000     0          
O        O      0.227400000000     0.350750000000     0.524250000000     0          
O        O      0.171550000000     0.328450000000     0.500000000000     0          
O        O      0.188950000000     0.312500000000     0.562500000000     0          
T        Si     0.189400000000     0.341000000000     0.534000000000     0          
O        O      0.421550000000     0.046550000000     0.625000000000     0          
O        O      0.147600000000     0.350750000000     0.850750000000     0          
O        O      0.203450000000     0.328450000000     0.875000000000     0          
T        Si     0.185600000000     0.341000000000     0.841000000000     0          
O        O      0.421550000000     0.078450000000     0.500000000000     0          
O        O      0.227400000000     0.274250000000     0.600750000000     0          
O        O      0.171550000000     0.296550000000     0.625000000000     0          
T        Si     0.189400000000     0.284000000000     0.591000000000     0          
O        O      0.475750000000     0.102400000000     0.725750000000     0          
O        O      0.453450000000     0.046550000000     0.750000000000     0          
T        Si     0.466000000000     0.064400000000     0.716000000000     0          
O        O      0.024250000000     0.397600000000     0.774250000000     0          
T        Si     0.034000000000     0.435600000000     0.784000000000     0          
O        O      0.274250000000     0.477400000000     0.850750000000     0          
O        O      0.250000000000     0.421550000000     0.828450000000     0          
O        O      0.312500000000     0.438950000000     0.812500000000     0          
O        O      0.335800000000     0.039200000000     0.789200000000     0          
T        Si     0.284000000000     0.439400000000     0.841000000000     0          
T        Si     0.359050000000     0.015950000000     0.765950000000     0          
O        O      0.272600000000     0.149250000000     0.975750000000     0          
O        O      0.311050000000     0.187500000000     0.937500000000     0          
O        O      0.210800000000     0.210800000000     0.914200000000     0          
T        Si     0.310600000000     0.159000000000     0.966000000000     0          
T        Si     0.234050000000     0.234050000000     0.890950000000     0          
O        O      0.125000000000     0.203450000000     0.578450000000     0          
O        O      0.296550000000     0.000000000000     0.953450000000     0          
O        O      0.125000000000     0.171550000000     0.796550000000     0          
O        O      0.272600000000     0.225750000000     0.899250000000     0          
O        O      0.210800000000     0.164200000000     0.960800000000     0          
T        Si     0.310600000000     0.216000000000     0.909000000000     0          
T        Si     0.234050000000     0.140950000000     0.984050000000     0          
O        O      0.102400000000     0.399250000000     0.649250000000     0          
O        O      0.063950000000     0.437500000000     0.687500000000     0          
O        O      0.164200000000     0.460800000000     0.710800000000     0          
T        Si     0.064400000000     0.409000000000     0.659000000000     0          
T        Si     0.140950000000     0.484050000000     0.734050000000     0          
O        O      0.453450000000     0.250000000000     0.546550000000     0          
O        O      0.000000000000     0.078450000000     0.921550000000     0          
O        O      0.149250000000     0.149250000000     0.852400000000     0          
O        O      0.187500000000     0.187500000000     0.813950000000     0          
T        Si     0.159000000000     0.159000000000     0.814400000000     0          
O        O      0.100750000000     0.274250000000     0.727400000000     0          
O        O      0.125000000000     0.296550000000     0.671550000000     0          
T        Si     0.091000000000     0.284000000000     0.689400000000     0          
O        O      0.453450000000     0.125000000000     0.828450000000     0          
O        O      0.100750000000     0.100750000000     0.647600000000     0          
O        O      0.125000000000     0.078450000000     0.703450000000     0          
T        Si     0.091000000000     0.091000000000     0.685600000000     0          
O        O      0.149250000000     0.225750000000     0.522600000000     0          
O        O      0.171550000000     0.250000000000     0.578450000000     0          
O        O      0.187500000000     0.187500000000     0.561050000000     0          
T        Si     0.159000000000     0.216000000000     0.560600000000     0          
O        O      0.296550000000     0.203450000000     0.750000000000     0          
O        O      0.024250000000     0.477400000000     0.600750000000     0          
O        O      0.046550000000     0.421550000000     0.625000000000     0          
T        Si     0.034000000000     0.439400000000     0.591000000000     0          
O        O      0.328450000000     0.171550000000     0.500000000000     0          
O        O      0.078450000000     0.453450000000     0.875000000000     0          
O        O      0.352400000000     0.149250000000     0.649250000000     0          
O        O      0.296550000000     0.171550000000     0.625000000000     0          
T        Si     0.314400000000     0.159000000000     0.659000000000     0          
O        O      0.078450000000     0.421550000000     0.500000000000     0          
O        O      0.328450000000     0.203450000000     0.875000000000     0          
O        O      0.046550000000     0.453450000000     0.750000000000     0          
O        O      0.225750000000     0.022600000000     0.649250000000     0          
O        O      0.250000000000     0.078450000000     0.671550000000     0          
O        O      0.187500000000     0.061050000000     0.687500000000     0          
T        Si     0.216000000000     0.060600000000     0.659000000000     0          
O        O      0.375000000000     0.296550000000     0.921550000000     0          
O        O      0.203450000000     0.000000000000     0.546550000000     0          
O        O      0.375000000000     0.328450000000     0.703450000000     0          
O        O      0.397600000000     0.100750000000     0.850750000000     0          
O        O      0.436050000000     0.062500000000     0.812500000000     0          
T        Si     0.435600000000     0.091000000000     0.841000000000     0          
O        O      0.274250000000     0.024250000000     0.897600000000     0          
O        O      0.335800000000     0.085800000000     0.835800000000     0          
T        Si     0.284000000000     0.034000000000     0.935600000000     0          
T        Si     0.359050000000     0.109050000000     0.859050000000     0          
O        O      0.225750000000     0.149250000000     0.522600000000     0          
T        Si     0.216000000000     0.159000000000     0.560600000000     0          
O        O      0.078450000000     0.125000000000     0.703450000000     0          
O        O      0.274250000000     0.100750000000     0.727400000000     0          
O        O      0.296550000000     0.125000000000     0.671550000000     0          
T        Si     0.284000000000     0.091000000000     0.689400000000     0          
O        O      0.078450000000     0.000000000000     0.921550000000     0          
O        O      0.225750000000     0.475750000000     0.602400000000     0          
O        O      0.250000000000     0.453450000000     0.546550000000     0          
O        O      0.164200000000     0.414200000000     0.664200000000     0          
T        Si     0.216000000000     0.466000000000     0.564400000000     0          
T        Si     0.140950000000     0.390950000000     0.640950000000     0          
O        O      0.397600000000     0.024250000000     0.774250000000     0          
T        Si     0.435600000000     0.034000000000     0.784000000000     0          
O        O      0.477400000000     0.100750000000     0.524250000000     0          
O        O      0.438950000000     0.062500000000     0.562500000000     0          
T        Si     0.439400000000     0.091000000000     0.534000000000     0          
O        O      0.149250000000     0.352400000000     0.649250000000     0          
O        O      0.187500000000     0.313950000000     0.687500000000     0          
T        Si     0.159000000000     0.314400000000     0.659000000000     0          
O        O      0.149250000000     0.272600000000     0.975750000000     0          
T        Si     0.159000000000     0.310600000000     0.966000000000     0          
O        O      0.477400000000     0.024250000000     0.600750000000     0          
T        Si     0.439400000000     0.034000000000     0.591000000000     0          
O        O      0.225750000000     0.352400000000     0.725750000000     0          
T        Si     0.216000000000     0.314400000000     0.716000000000     0          
O        O      0.274250000000     0.147600000000     0.774250000000     0          
O        O      0.250000000000     0.203450000000     0.796550000000     0          
O        O      0.312500000000     0.186050000000     0.812500000000     0          
T        Si     0.284000000000     0.185600000000     0.784000000000     0          
O        O      0.022600000000     0.399250000000     0.975750000000     0          
O        O      0.078450000000     0.375000000000     0.953450000000     0          
O        O      0.061050000000     0.437500000000     0.937500000000     0          
T        Si     0.060600000000     0.409000000000     0.966000000000     0          
O        O      0.350750000000     0.397600000000     0.600750000000     0          
O        O      0.312500000000     0.436050000000     0.562500000000     0          
T        Si     0.341000000000     0.435600000000     0.591000000000     0          
O        O      0.102400000000     0.225750000000     0.975750000000     0          
O        O      0.164200000000     0.164200000000     0.914200000000     0          
T        Si     0.064400000000     0.216000000000     0.966000000000     0          
T        Si     0.140950000000     0.140950000000     0.890950000000     0          
O        O      0.350750000000     0.477400000000     0.774250000000     0          
T        Si     0.341000000000     0.439400000000     0.784000000000     0          
O        O      0.022600000000     0.475750000000     0.899250000000     0          
T        Si     0.060600000000     0.466000000000     0.909000000000     0          
O        O      0.274250000000     0.350750000000     0.977400000000     0          
T        Si     0.284000000000     0.341000000000     0.939400000000     0          
O        O      0.421550000000     0.375000000000     0.796550000000     0          
O        O      0.225750000000     0.399250000000     0.772600000000     0          
O        O      0.203450000000     0.375000000000     0.828450000000     0          
T        Si     0.216000000000     0.409000000000     0.810600000000     0          
O        O      0.421550000000     0.000000000000     0.578450000000     0          
O        O      0.250000000000     0.046550000000     0.953450000000     0          
O        O      0.102400000000     0.475750000000     0.725750000000     0          
T        Si     0.064400000000     0.466000000000     0.716000000000     0          
O        O      0.350750000000     0.147600000000     0.850750000000     0          
T        Si     0.341000000000     0.185600000000     0.841000000000     0          
O        O      0.350750000000     0.227400000000     0.524250000000     0          
T        Si     0.341000000000     0.189400000000     0.534000000000     0          
O        O      0.250000000000     0.296550000000     0.703450000000     0          
O        O      0.421550000000     0.125000000000     0.546550000000     0          
O        O      0.149250000000     0.102400000000     0.899250000000     0          
O        O      0.187500000000     0.063950000000     0.937500000000     0          
T        Si     0.159000000000     0.064400000000     0.909000000000     0          
O        O      0.397600000000     0.274250000000     0.524250000000     0          
O        O      0.335800000000     0.335800000000     0.585800000000     0          
T        Si     0.435600000000     0.284000000000     0.534000000000     0          
T        Si     0.359050000000     0.359050000000     0.609050000000     0          
O        O      0.149250000000     0.022600000000     0.725750000000     0          
T        Si     0.159000000000     0.060600000000     0.716000000000     0          
O        O      0.274250000000     0.274250000000     0.647600000000     0          
T        Si     0.284000000000     0.284000000000     0.685600000000     0          
O        O      0.296550000000     0.375000000000     0.921550000000     0          
O        O      0.078450000000     0.250000000000     0.671550000000     0          
O        O      0.225750000000     0.225750000000     0.852400000000     0          
T        Si     0.216000000000     0.216000000000     0.814400000000     0          
O        O      0.477400000000     0.350750000000     0.774250000000     0          
O        O      0.438950000000     0.312500000000     0.812500000000     0          
T        Si     0.439400000000     0.341000000000     0.784000000000     0          
O        O      0.477400000000     0.274250000000     0.850750000000     0          
T        Si     0.439400000000     0.284000000000     0.841000000000     0          
O        O      0.225750000000     0.102400000000     0.975750000000     0          
T        Si     0.216000000000     0.064400000000     0.966000000000     0          
O        O      0.274250000000     0.397600000000     0.524250000000     0          
T        Si     0.284000000000     0.435600000000     0.534000000000     0          
O        O      0.022600000000     0.149250000000     0.725750000000     0          
O        O      0.061050000000     0.187500000000     0.687500000000     0          
T        Si     0.060600000000     0.159000000000     0.716000000000     0          
O        O      0.022600000000     0.225750000000     0.649250000000     0          
T        Si     0.060600000000     0.216000000000     0.659000000000     0          
O        O      0.203450000000     0.125000000000     0.578450000000     0          
O        O      0.421550000000     0.250000000000     0.828450000000     0          
O        O      0.024250000000     0.524250000000     0.147600000000     0          
O        O      0.046550000000     0.500000000000     0.203450000000     0          
O        O      0.062500000000     0.562500000000     0.186050000000     0          
O        O      0.085800000000     0.585800000000     0.085800000000     0          
T        Si     0.034000000000     0.534000000000     0.185600000000     0          
T        Si     0.109050000000     0.609050000000     0.109050000000     0          
T        Si     0.062500000000     0.562500000000     0.062500000000     0          
O        O      0.475750000000     0.649250000000     0.272600000000     0          
O        O      0.000000000000     0.671550000000     0.328450000000     0          
O        O      0.437500000000     0.687500000000     0.311050000000     0          
O        O      0.414200000000     0.710800000000     0.210800000000     0          
T        Si     0.466000000000     0.659000000000     0.310600000000     0          
T        Si     0.390950000000     0.734050000000     0.234050000000     0          
T        Si     0.437500000000     0.687500000000     0.187500000000     0          
O        O      0.350750000000     0.600750000000     0.397600000000     0          
O        O      0.328450000000     0.625000000000     0.453450000000     0          
O        O      0.312500000000     0.562500000000     0.436050000000     0          
O        O      0.289200000000     0.539200000000     0.335800000000     0          
T        Si     0.341000000000     0.591000000000     0.435600000000     0          
T        Si     0.265950000000     0.515950000000     0.359050000000     0          
T        Si     0.312500000000     0.562500000000     0.312500000000     0          
O        O      0.399250000000     0.975750000000     0.022600000000     0          
O        O      0.375000000000     0.953450000000     0.078450000000     0          
O        O      0.437500000000     0.937500000000     0.061050000000     0          
O        O      0.460800000000     0.914200000000     0.460800000000     0          
T        Si     0.409000000000     0.966000000000     0.060600000000     0          
T        Si     0.484050000000     0.890950000000     0.484050000000     0          
T        Si     0.437500000000     0.937500000000     0.437500000000     0          
O        O      0.024250000000     0.600750000000     0.477400000000     0          
O        O      0.046550000000     0.625000000000     0.421550000000     0          
O        O      0.062500000000     0.562500000000     0.438950000000     0          
O        O      0.085800000000     0.539200000000     0.039200000000     0          
T        Si     0.034000000000     0.591000000000     0.439400000000     0          
T        Si     0.109050000000     0.515950000000     0.015950000000     0          
O        O      0.399250000000     0.649250000000     0.102400000000     0          
O        O      0.375000000000     0.671550000000     0.046550000000     0          
O        O      0.437500000000     0.687500000000     0.063950000000     0          
O        O      0.460800000000     0.710800000000     0.164200000000     0          
T        Si     0.409000000000     0.659000000000     0.064400000000     0          
T        Si     0.484050000000     0.734050000000     0.140950000000     0          
O        O      0.350750000000     0.524250000000     0.227400000000     0          
O        O      0.328450000000     0.500000000000     0.171550000000     0          
O        O      0.312500000000     0.562500000000     0.188950000000     0          
O        O      0.289200000000     0.585800000000     0.289200000000     0          
T        Si     0.341000000000     0.534000000000     0.189400000000     0          
T        Si     0.265950000000     0.609050000000     0.265950000000     0          
O        O      0.475750000000     0.975750000000     0.352400000000     0          
O        O      0.000000000000     0.953450000000     0.296550000000     0          
O        O      0.437500000000     0.937500000000     0.313950000000     0          
O        O      0.414200000000     0.914200000000     0.414200000000     0          
T        Si     0.466000000000     0.966000000000     0.314400000000     0          
T        Si     0.390950000000     0.890950000000     0.390950000000     0          
O        O      0.147600000000     0.524250000000     0.024250000000     0          
O        O      0.203450000000     0.546550000000     0.000000000000     0          
O        O      0.186050000000     0.562500000000     0.062500000000     0          
T        Si     0.185600000000     0.534000000000     0.034000000000     0          
O        O      0.475750000000     0.772600000000     0.149250000000     0          
O        O      0.453450000000     0.828450000000     0.125000000000     0          
O        O      0.437500000000     0.811050000000     0.187500000000     0          
T        Si     0.466000000000     0.810600000000     0.159000000000     0          
O        O      0.227400000000     0.600750000000     0.274250000000     0          
O        O      0.171550000000     0.578450000000     0.250000000000     0          
O        O      0.188950000000     0.562500000000     0.312500000000     0          
T        Si     0.189400000000     0.591000000000     0.284000000000     0          
O        O      0.399250000000     0.852400000000     0.399250000000     0          
O        O      0.421550000000     0.796550000000     0.375000000000     0          
O        O      0.437500000000     0.813950000000     0.437500000000     0          
T        Si     0.409000000000     0.814400000000     0.409000000000     0          
O        O      0.147600000000     0.600750000000     0.100750000000     0          
O        O      0.203450000000     0.578450000000     0.125000000000     0          
T        Si     0.185600000000     0.591000000000     0.091000000000     0          
O        O      0.399250000000     0.772600000000     0.225750000000     0          
O        O      0.421550000000     0.828450000000     0.250000000000     0          
T        Si     0.409000000000     0.810600000000     0.216000000000     0          
O        O      0.227400000000     0.524250000000     0.350750000000     0          
O        O      0.171550000000     0.546550000000     0.375000000000     0          
T        Si     0.189400000000     0.534000000000     0.341000000000     0          
O        O      0.475750000000     0.852400000000     0.475750000000     0          
O        O      0.453450000000     0.796550000000     0.000000000000     0          
T        Si     0.466000000000     0.814400000000     0.466000000000     0          
O        O      0.024250000000     0.647600000000     0.024250000000     0          
O        O      0.000000000000     0.703450000000     0.046550000000     0          
O        O      0.062500000000     0.686050000000     0.062500000000     0          
T        Si     0.034000000000     0.685600000000     0.034000000000     0          
O        O      0.274250000000     0.727400000000     0.100750000000     0          
O        O      0.250000000000     0.671550000000     0.078450000000     0          
O        O      0.312500000000     0.688950000000     0.062500000000     0          
O        O      0.335800000000     0.789200000000     0.039200000000     0          
T        Si     0.284000000000     0.689400000000     0.091000000000     0          
T        Si     0.359050000000     0.765950000000     0.015950000000     0          
T        Si     0.312500000000     0.812500000000     0.062500000000     0          
O        O      0.272600000000     0.899250000000     0.225750000000     0          
O        O      0.328450000000     0.875000000000     0.203450000000     0          
O        O      0.311050000000     0.937500000000     0.187500000000     0          
O        O      0.210800000000     0.960800000000     0.164200000000     0          
T        Si     0.310600000000     0.909000000000     0.216000000000     0          
T        Si     0.234050000000     0.984050000000     0.140950000000     0          
T        Si     0.187500000000     0.937500000000     0.187500000000     0          
O        O      0.100750000000     0.897600000000     0.350750000000     0          
O        O      0.125000000000     0.953450000000     0.328450000000     0          
O        O      0.062500000000     0.936050000000     0.312500000000     0          
O        O      0.039200000000     0.835800000000     0.289200000000     0          
T        Si     0.091000000000     0.935600000000     0.341000000000     0          
T        Si     0.015950000000     0.859050000000     0.265950000000     0          
T        Si     0.062500000000     0.812500000000     0.312500000000     0          
O        O      0.352400000000     0.725750000000     0.225750000000     0          
O        O      0.296550000000     0.750000000000     0.203450000000     0          
O        O      0.313950000000     0.687500000000     0.187500000000     0          
O        O      0.414200000000     0.664200000000     0.164200000000     0          
T        Si     0.314400000000     0.716000000000     0.216000000000     0          
T        Si     0.390950000000     0.640950000000     0.140950000000     0          
O        O      0.100750000000     0.977400000000     0.024250000000     0          
O        O      0.125000000000     0.921550000000     0.046550000000     0          
O        O      0.062500000000     0.938950000000     0.062500000000     0          
O        O      0.039200000000     0.539200000000     0.085800000000     0          
T        Si     0.091000000000     0.939400000000     0.034000000000     0          
T        Si     0.015950000000     0.515950000000     0.109050000000     0          
O        O      0.272600000000     0.975750000000     0.149250000000     0          
O        O      0.210800000000     0.914200000000     0.210800000000     0          
T        Si     0.310600000000     0.966000000000     0.159000000000     0          
T        Si     0.234050000000     0.890950000000     0.234050000000     0          
O        O      0.102400000000     0.649250000000     0.399250000000     0          
O        O      0.063950000000     0.687500000000     0.437500000000     0          
O        O      0.164200000000     0.710800000000     0.460800000000     0          
T        Si     0.064400000000     0.659000000000     0.409000000000     0          
T        Si     0.140950000000     0.734050000000     0.484050000000     0          
T        Si     0.187500000000     0.687500000000     0.437500000000     0          
O        O      0.453450000000     0.500000000000     0.296550000000     0          
O        O      0.024250000000     0.850750000000     0.227400000000     0          
O        O      0.000000000000     0.828450000000     0.171550000000     0          
O        O      0.062500000000     0.812500000000     0.188950000000     0          
O        O      0.085800000000     0.789200000000     0.289200000000     0          
T        Si     0.034000000000     0.841000000000     0.189400000000     0          
T        Si     0.109050000000     0.765950000000     0.265950000000     0          
O        O      0.149250000000     0.899250000000     0.102400000000     0          
O        O      0.171550000000     0.875000000000     0.046550000000     0          
O        O      0.187500000000     0.937500000000     0.063950000000     0          
T        Si     0.159000000000     0.909000000000     0.064400000000     0          
O        O      0.100750000000     0.524250000000     0.477400000000     0          
O        O      0.125000000000     0.546550000000     0.421550000000     0          
O        O      0.039200000000     0.585800000000     0.039200000000     0          
T        Si     0.091000000000     0.534000000000     0.439400000000     0          
T        Si     0.015950000000     0.609050000000     0.015950000000     0          
O        O      0.475750000000     0.899250000000     0.022600000000     0          
O        O      0.453450000000     0.875000000000     0.078450000000     0          
O        O      0.414200000000     0.960800000000     0.460800000000     0          
T        Si     0.466000000000     0.909000000000     0.060600000000     0          
T        Si     0.390950000000     0.984050000000     0.484050000000     0          
O        O      0.100750000000     0.850750000000     0.397600000000     0          
O        O      0.125000000000     0.828450000000     0.453450000000     0          
O        O      0.062500000000     0.812500000000     0.436050000000     0          
O        O      0.039200000000     0.789200000000     0.335800000000     0          
T        Si     0.091000000000     0.841000000000     0.435600000000     0          
T        Si     0.015950000000     0.765950000000     0.359050000000     0          
O        O      0.149250000000     0.975750000000     0.272600000000     0          
O        O      0.171550000000     0.500000000000     0.328450000000     0          
O        O      0.187500000000     0.937500000000     0.311050000000     0          
T        Si     0.159000000000     0.966000000000     0.310600000000     0          
O        O      0.000000000000     0.546550000000     0.203450000000     0          
O        O      0.352400000000     0.975750000000     0.475750000000     0          
O        O      0.296550000000     0.953450000000     0.000000000000     0          
O        O      0.313950000000     0.937500000000     0.437500000000     0          
T        Si     0.314400000000     0.966000000000     0.466000000000     0          
O        O      0.024250000000     0.727400000000     0.350750000000     0          
O        O      0.046550000000     0.671550000000     0.375000000000     0          
O        O      0.062500000000     0.688950000000     0.312500000000     0          
T        Si     0.034000000000     0.689400000000     0.341000000000     0          
O        O      0.328450000000     0.921550000000     0.250000000000     0          
O        O      0.100750000000     0.647600000000     0.100750000000     0          
O        O      0.078450000000     0.703450000000     0.125000000000     0          
T        Si     0.091000000000     0.685600000000     0.091000000000     0          
O        O      0.352400000000     0.899250000000     0.399250000000     0          
O        O      0.296550000000     0.921550000000     0.375000000000     0          
T        Si     0.314400000000     0.909000000000     0.409000000000     0          
O        O      0.100750000000     0.727400000000     0.274250000000     0          
O        O      0.078450000000     0.671550000000     0.250000000000     0          
T        Si     0.091000000000     0.689400000000     0.284000000000     0          
O        O      0.328450000000     0.953450000000     0.125000000000     0          
O        O      0.046550000000     0.703450000000     0.000000000000     0          
O        O      0.000000000000     0.796550000000     0.453450000000     0          
O        O      0.225750000000     0.772600000000     0.399250000000     0          
O        O      0.250000000000     0.828450000000     0.421550000000     0          
O        O      0.187500000000     0.811050000000     0.437500000000     0          
T        Si     0.216000000000     0.810600000000     0.409000000000     0          
O        O      0.171550000000     0.625000000000     0.296550000000     0          
O        O      0.399250000000     0.602400000000     0.149250000000     0          
O        O      0.375000000000     0.546550000000     0.171550000000     0          
O        O      0.437500000000     0.563950000000     0.187500000000     0          
O        O      0.460800000000     0.664200000000     0.210800000000     0          
T        Si     0.409000000000     0.564400000000     0.159000000000     0          
T        Si     0.484050000000     0.640950000000     0.234050000000     0          
O        O      0.147600000000     0.774250000000     0.274250000000     0          
O        O      0.203450000000     0.750000000000     0.296550000000     0          
O        O      0.186050000000     0.812500000000     0.312500000000     0          
O        O      0.085800000000     0.835800000000     0.335800000000     0          
T        Si     0.185600000000     0.784000000000     0.284000000000     0          
T        Si     0.109050000000     0.859050000000     0.359050000000     0          
O        O      0.399250000000     0.522600000000     0.475750000000     0          
O        O      0.375000000000     0.578450000000     0.453450000000     0          
O        O      0.437500000000     0.561050000000     0.437500000000     0          
O        O      0.460800000000     0.960800000000     0.414200000000     0          
T        Si     0.409000000000     0.560600000000     0.466000000000     0          
T        Si     0.484050000000     0.984050000000     0.390950000000     0          
O        O      0.397600000000     0.850750000000     0.100750000000     0          
O        O      0.436050000000     0.812500000000     0.062500000000     0          
T        Si     0.435600000000     0.841000000000     0.091000000000     0          
O        O      0.024250000000     0.774250000000     0.397600000000     0          
O        O      0.046550000000     0.750000000000     0.453450000000     0          
T        Si     0.034000000000     0.784000000000     0.435600000000     0          
O        O      0.000000000000     0.921550000000     0.078450000000     0          
O        O      0.350750000000     0.850750000000     0.147600000000     0          
O        O      0.312500000000     0.812500000000     0.186050000000     0          
O        O      0.289200000000     0.789200000000     0.085800000000     0          
T        Si     0.341000000000     0.841000000000     0.185600000000     0          
T        Si     0.265950000000     0.765950000000     0.109050000000     0          
O        O      0.399250000000     0.725750000000     0.272600000000     0          
O        O      0.375000000000     0.703450000000     0.328450000000     0          
T        Si     0.409000000000     0.716000000000     0.310600000000     0          
O        O      0.046550000000     0.875000000000     0.171550000000     0          
O        O      0.399250000000     0.899250000000     0.352400000000     0          
O        O      0.375000000000     0.921550000000     0.296550000000     0          
T        Si     0.409000000000     0.909000000000     0.314400000000     0          
O        O      0.350750000000     0.774250000000     0.477400000000     0          
O        O      0.328450000000     0.750000000000     0.421550000000     0          
O        O      0.312500000000     0.812500000000     0.438950000000     0          
O        O      0.289200000000     0.835800000000     0.039200000000     0          
T        Si     0.341000000000     0.784000000000     0.439400000000     0          
T        Si     0.265950000000     0.859050000000     0.015950000000     0          
O        O      0.475750000000     0.725750000000     0.102400000000     0          
T        Si     0.466000000000     0.716000000000     0.064400000000     0          
O        O      0.203450000000     0.796550000000     0.250000000000     0          
O        O      0.475750000000     0.522600000000     0.399250000000     0          
O        O      0.453450000000     0.578450000000     0.375000000000     0          
T        Si     0.466000000000     0.560600000000     0.409000000000     0          
O        O      0.227400000000     0.850750000000     0.024250000000     0          
O        O      0.171550000000     0.828450000000     0.000000000000     0          
O        O      0.188950000000     0.812500000000     0.062500000000     0          
T        Si     0.189400000000     0.841000000000     0.034000000000     0          
O        O      0.421550000000     0.546550000000     0.125000000000     0          
O        O      0.147600000000     0.850750000000     0.350750000000     0          
O        O      0.203450000000     0.828450000000     0.375000000000     0          
T        Si     0.185600000000     0.841000000000     0.341000000000     0          
O        O      0.421550000000     0.578450000000     0.000000000000     0          
O        O      0.227400000000     0.774250000000     0.100750000000     0          
O        O      0.171550000000     0.796550000000     0.125000000000     0          
T        Si     0.189400000000     0.784000000000     0.091000000000     0          
O        O      0.475750000000     0.602400000000     0.225750000000     0          
O        O      0.453450000000     0.546550000000     0.250000000000     0          
T        Si     0.466000000000     0.564400000000     0.216000000000     0          
O        O      0.024250000000     0.897600000000     0.274250000000     0          
T        Si     0.034000000000     0.935600000000     0.284000000000     0          
O        O      0.274250000000     0.977400000000     0.350750000000     0          
O        O      0.250000000000     0.921550000000     0.328450000000     0          
O        O      0.312500000000     0.938950000000     0.312500000000     0          
O        O      0.335800000000     0.539200000000     0.289200000000     0          
T        Si     0.284000000000     0.939400000000     0.341000000000     0          
T        Si     0.359050000000     0.515950000000     0.265950000000     0          
O        O      0.272600000000     0.649250000000     0.475750000000     0          
O        O      0.311050000000     0.687500000000     0.437500000000     0          
O        O      0.210800000000     0.710800000000     0.414200000000     0          
T        Si     0.310600000000     0.659000000000     0.466000000000     0          
T        Si     0.234050000000     0.734050000000     0.390950000000     0          
O        O      0.125000000000     0.703450000000     0.078450000000     0          
O        O      0.296550000000     0.500000000000     0.453450000000     0          
O        O      0.125000000000     0.671550000000     0.296550000000     0          
O        O      0.272600000000     0.725750000000     0.399250000000     0          
O        O      0.210800000000     0.664200000000     0.460800000000     0          
T        Si     0.310600000000     0.716000000000     0.409000000000     0          
T        Si     0.234050000000     0.640950000000     0.484050000000     0          
O        O      0.102400000000     0.899250000000     0.149250000000     0          
O        O      0.063950000000     0.937500000000     0.187500000000     0          
O        O      0.164200000000     0.960800000000     0.210800000000     0          
T        Si     0.064400000000     0.909000000000     0.159000000000     0          
T        Si     0.140950000000     0.984050000000     0.234050000000     0          
O        O      0.453450000000     0.750000000000     0.046550000000     0          
O        O      0.000000000000     0.578450000000     0.421550000000     0          
O        O      0.149250000000     0.649250000000     0.352400000000     0          
O        O      0.187500000000     0.687500000000     0.313950000000     0          
T        Si     0.159000000000     0.659000000000     0.314400000000     0          
O        O      0.100750000000     0.774250000000     0.227400000000     0          
O        O      0.125000000000     0.796550000000     0.171550000000     0          
T        Si     0.091000000000     0.784000000000     0.189400000000     0          
O        O      0.453450000000     0.625000000000     0.328450000000     0          
O        O      0.100750000000     0.600750000000     0.147600000000     0          
O        O      0.125000000000     0.578450000000     0.203450000000     0          
T        Si     0.091000000000     0.591000000000     0.185600000000     0          
O        O      0.149250000000     0.725750000000     0.022600000000     0          
O        O      0.171550000000     0.750000000000     0.078450000000     0          
O        O      0.187500000000     0.687500000000     0.061050000000     0          
T        Si     0.159000000000     0.716000000000     0.060600000000     0          
O        O      0.296550000000     0.703450000000     0.250000000000     0          
O        O      0.024250000000     0.977400000000     0.100750000000     0          
O        O      0.046550000000     0.921550000000     0.125000000000     0          
T        Si     0.034000000000     0.939400000000     0.091000000000     0          
O        O      0.328450000000     0.671550000000     0.000000000000     0          
O        O      0.078450000000     0.953450000000     0.375000000000     0          
O        O      0.352400000000     0.649250000000     0.149250000000     0          
O        O      0.296550000000     0.671550000000     0.125000000000     0          
T        Si     0.314400000000     0.659000000000     0.159000000000     0          
O        O      0.078450000000     0.921550000000     0.000000000000     0          
O        O      0.328450000000     0.703450000000     0.375000000000     0          
O        O      0.046550000000     0.953450000000     0.250000000000     0          
O        O      0.225750000000     0.522600000000     0.149250000000     0          
O        O      0.250000000000     0.578450000000     0.171550000000     0          
O        O      0.187500000000     0.561050000000     0.187500000000     0          
T        Si     0.216000000000     0.560600000000     0.159000000000     0          
O        O      0.375000000000     0.796550000000     0.421550000000     0          
O        O      0.203450000000     0.500000000000     0.046550000000     0          
O        O      0.375000000000     0.828450000000     0.203450000000     0          
O        O      0.397600000000     0.600750000000     0.350750000000     0          
O        O      0.436050000000     0.562500000000     0.312500000000     0          
T        Si     0.435600000000     0.591000000000     0.341000000000     0          
O        O      0.274250000000     0.524250000000     0.397600000000     0          
O        O      0.335800000000     0.585800000000     0.335800000000     0          
T        Si     0.284000000000     0.534000000000     0.435600000000     0          
T        Si     0.359050000000     0.609050000000     0.359050000000     0          
O        O      0.225750000000     0.649250000000     0.022600000000     0          
T        Si     0.216000000000     0.659000000000     0.060600000000     0          
O        O      0.078450000000     0.625000000000     0.203450000000     0          
O        O      0.274250000000     0.600750000000     0.227400000000     0          
O        O      0.296550000000     0.625000000000     0.171550000000     0          
T        Si     0.284000000000     0.591000000000     0.189400000000     0          
O        O      0.078450000000     0.500000000000     0.421550000000     0          
O        O      0.225750000000     0.975750000000     0.102400000000     0          
O        O      0.250000000000     0.953450000000     0.046550000000     0          
O        O      0.164200000000     0.914200000000     0.164200000000     0          
T        Si     0.216000000000     0.966000000000     0.064400000000     0          
T        Si     0.140950000000     0.890950000000     0.140950000000     0          
O        O      0.397600000000     0.524250000000     0.274250000000     0          
T        Si     0.435600000000     0.534000000000     0.284000000000     0          
O        O      0.477400000000     0.600750000000     0.024250000000     0          
O        O      0.438950000000     0.562500000000     0.062500000000     0          
T        Si     0.439400000000     0.591000000000     0.034000000000     0          
O        O      0.149250000000     0.852400000000     0.149250000000     0          
O        O      0.187500000000     0.813950000000     0.187500000000     0          
T        Si     0.159000000000     0.814400000000     0.159000000000     0          
O        O      0.149250000000     0.772600000000     0.475750000000     0          
T        Si     0.159000000000     0.810600000000     0.466000000000     0          
O        O      0.477400000000     0.524250000000     0.100750000000     0          
T        Si     0.439400000000     0.534000000000     0.091000000000     0          
O        O      0.225750000000     0.852400000000     0.225750000000     0          
T        Si     0.216000000000     0.814400000000     0.216000000000     0          
O        O      0.274250000000     0.647600000000     0.274250000000     0          
O        O      0.250000000000     0.703450000000     0.296550000000     0          
O        O      0.312500000000     0.686050000000     0.312500000000     0          
T        Si     0.284000000000     0.685600000000     0.284000000000     0          
O        O      0.022600000000     0.899250000000     0.475750000000     0          
O        O      0.078450000000     0.875000000000     0.453450000000     0          
O        O      0.061050000000     0.937500000000     0.437500000000     0          
T        Si     0.060600000000     0.909000000000     0.466000000000     0          
O        O      0.350750000000     0.897600000000     0.100750000000     0          
O        O      0.312500000000     0.936050000000     0.062500000000     0          
T        Si     0.341000000000     0.935600000000     0.091000000000     0          
O        O      0.102400000000     0.725750000000     0.475750000000     0          
O        O      0.164200000000     0.664200000000     0.414200000000     0          
T        Si     0.064400000000     0.716000000000     0.466000000000     0          
T        Si     0.140950000000     0.640950000000     0.390950000000     0          
O        O      0.350750000000     0.977400000000     0.274250000000     0          
T        Si     0.341000000000     0.939400000000     0.284000000000     0          
O        O      0.022600000000     0.975750000000     0.399250000000     0          
T        Si     0.060600000000     0.966000000000     0.409000000000     0          
O        O      0.274250000000     0.850750000000     0.477400000000     0          
T        Si     0.284000000000     0.841000000000     0.439400000000     0          
O        O      0.421550000000     0.875000000000     0.296550000000     0          
O        O      0.225750000000     0.899250000000     0.272600000000     0          
O        O      0.203450000000     0.875000000000     0.328450000000     0          
T        Si     0.216000000000     0.909000000000     0.310600000000     0          
O        O      0.421550000000     0.500000000000     0.078450000000     0          
O        O      0.250000000000     0.546550000000     0.453450000000     0          
O        O      0.102400000000     0.975750000000     0.225750000000     0          
T        Si     0.064400000000     0.966000000000     0.216000000000     0          
O        O      0.350750000000     0.647600000000     0.350750000000     0          
T        Si     0.341000000000     0.685600000000     0.341000000000     0          
O        O      0.350750000000     0.727400000000     0.024250000000     0          
T        Si     0.341000000000     0.689400000000     0.034000000000     0          
O        O      0.250000000000     0.796550000000     0.203450000000     0          
O        O      0.421550000000     0.625000000000     0.046550000000     0          
O        O      0.149250000000     0.602400000000     0.399250000000     0          
O        O      0.187500000000     0.563950000000     0.437500000000     0          
T        Si     0.159000000000     0.564400000000     0.409000000000     0          
O        O      0.397600000000     0.774250000000     0.024250000000     0          
O        O      0.335800000000     0.835800000000     0.085800000000     0          
T        Si     0.435600000000     0.784000000000     0.034000000000     0          
T        Si     0.359050000000     0.859050000000     0.109050000000     0          
O        O      0.149250000000     0.522600000000     0.225750000000     0          
T        Si     0.159000000000     0.560600000000     0.216000000000     0          
O        O      0.274250000000     0.774250000000     0.147600000000     0          
T        Si     0.284000000000     0.784000000000     0.185600000000     0          
O        O      0.296550000000     0.875000000000     0.421550000000     0          
O        O      0.078450000000     0.750000000000     0.171550000000     0          
O        O      0.225750000000     0.725750000000     0.352400000000     0          
T        Si     0.216000000000     0.716000000000     0.314400000000     0          
O        O      0.477400000000     0.850750000000     0.274250000000     0          
O        O      0.438950000000     0.812500000000     0.312500000000     0          
T        Si     0.439400000000     0.841000000000     0.284000000000     0          
O        O      0.477400000000     0.774250000000     0.350750000000     0          
T        Si     0.439400000000     0.784000000000     0.341000000000     0          
O        O      0.225750000000     0.602400000000     0.475750000000     0          
T        Si     0.216000000000     0.564400000000     0.466000000000     0          
O        O      0.274250000000     0.897600000000     0.024250000000     0          
T        Si     0.284000000000     0.935600000000     0.034000000000     0          
O        O      0.022600000000     0.649250000000     0.225750000000     0          
O        O      0.061050000000     0.687500000000     0.187500000000     0          
T        Si     0.060600000000     0.659000000000     0.216000000000     0          
O        O      0.022600000000     0.725750000000     0.149250000000     0          
T        Si     0.060600000000     0.716000000000     0.159000000000     0          
O        O      0.203450000000     0.625000000000     0.078450000000     0          
O        O      0.421550000000     0.750000000000     0.328450000000     0          
O        O      0.024250000000     0.524250000000     0.647600000000     0          
O        O      0.046550000000     0.500000000000     0.703450000000     0          
O        O      0.062500000000     0.562500000000     0.686050000000     0          
O        O      0.085800000000     0.585800000000     0.585800000000     0          
T        Si     0.034000000000     0.534000000000     0.685600000000     0          
T        Si     0.109050000000     0.609050000000     0.609050000000     0          
T        Si     0.062500000000     0.562500000000     0.562500000000     0          
O        O      0.475750000000     0.649250000000     0.772600000000     0          
O        O      0.000000000000     0.671550000000     0.828450000000     0          
O        O      0.437500000000     0.687500000000     0.811050000000     0          
O        O      0.414200000000     0.710800000000     0.710800000000     0          
T        Si     0.466000000000     0.659000000000     0.810600000000     0          
T        Si     0.390950000000     0.734050000000     0.734050000000     0          
T        Si     0.437500000000     0.687500000000     0.687500000000     0          
O        O      0.350750000000     0.600750000000     0.897600000000     0          
O        O      0.328450000000     0.625000000000     0.953450000000     0          
O        O      0.312500000000     0.562500000000     0.936050000000     0          
O        O      0.289200000000     0.539200000000     0.835800000000     0          
T        Si     0.341000000000     0.591000000000     0.935600000000     0          
T        Si     0.265950000000     0.515950000000     0.859050000000     0          
T        Si     0.312500000000     0.562500000000     0.812500000000     0          
O        O      0.399250000000     0.975750000000     0.522600000000     0          
O        O      0.375000000000     0.953450000000     0.578450000000     0          
O        O      0.437500000000     0.937500000000     0.561050000000     0          
O        O      0.460800000000     0.914200000000     0.960800000000     0          
T        Si     0.409000000000     0.966000000000     0.560600000000     0          
T        Si     0.484050000000     0.890950000000     0.984050000000     0          
T        Si     0.437500000000     0.937500000000     0.937500000000     0          
O        O      0.024250000000     0.600750000000     0.977400000000     0          
O        O      0.046550000000     0.625000000000     0.921550000000     0          
O        O      0.062500000000     0.562500000000     0.938950000000     0          
O        O      0.085800000000     0.539200000000     0.539200000000     0          
T        Si     0.034000000000     0.591000000000     0.939400000000     0          
T        Si     0.109050000000     0.515950000000     0.515950000000     0          
O        O      0.399250000000     0.649250000000     0.602400000000     0          
O        O      0.375000000000     0.671550000000     0.546550000000     0          
O        O      0.437500000000     0.687500000000     0.563950000000     0          
O        O      0.460800000000     0.710800000000     0.664200000000     0          
T        Si     0.409000000000     0.659000000000     0.564400000000     0          
T        Si     0.484050000000     0.734050000000     0.640950000000     0          
O        O      0.350750000000     0.524250000000     0.727400000000     0          
O        O      0.328450000000     0.500000000000     0.671550000000     0          
O        O      0.312500000000     0.562500000000     0.688950000000     0          
O        O      0.289200000000     0.585800000000     0.789200000000     0          
T        Si     0.341000000000     0.534000000000     0.689400000000     0          
T        Si     0.265950000000     0.609050000000     0.765950000000     0          
O        O      0.475750000000     0.975750000000     0.852400000000     0          
O        O      0.000000000000     0.953450000000     0.796550000000     0          
O        O      0.437500000000     0.937500000000     0.813950000000     0          
O        O      0.414200000000     0.914200000000     0.914200000000     0          
T        Si     0.466000000000     0.966000000000     0.814400000000     0          
T        Si     0.390950000000     0.890950000000     0.890950000000     0          
O        O      0.147600000000     0.524250000000     0.524250000000     0          
O        O      0.203450000000     0.546550000000     0.500000000000     0          
O        O      0.186050000000     0.562500000000     0.562500000000     0          
T        Si     0.185600000000     0.534000000000     0.534000000000     0          
O        O      0.475750000000     0.772600000000     0.649250000000     0          
O        O      0.453450000000     0.828450000000     0.625000000000     0          
O        O      0.437500000000     0.811050000000     0.687500000000     0          
T        Si     0.466000000000     0.810600000000     0.659000000000     0          
O        O      0.227400000000     0.600750000000     0.774250000000     0          
O        O      0.171550000000     0.578450000000     0.750000000000     0          
O        O      0.188950000000     0.562500000000     0.812500000000     0          
T        Si     0.189400000000     0.591000000000     0.784000000000     0          
O        O      0.399250000000     0.852400000000     0.899250000000     0          
O        O      0.421550000000     0.796550000000     0.875000000000     0          
O        O      0.437500000000     0.813950000000     0.937500000000     0          
T        Si     0.409000000000     0.814400000000     0.909000000000     0          
O        O      0.147600000000     0.600750000000     0.600750000000     0          
O        O      0.203450000000     0.578450000000     0.625000000000     0          
T        Si     0.185600000000     0.591000000000     0.591000000000     0          
O        O      0.399250000000     0.772600000000     0.725750000000     0          
O        O      0.421550000000     0.828450000000     0.750000000000     0          
T        Si     0.409000000000     0.810600000000     0.716000000000     0          
O        O      0.227400000000     0.524250000000     0.850750000000     0          
O        O      0.171550000000     0.546550000000     0.875000000000     0          
T        Si     0.189400000000     0.534000000000     0.841000000000     0          
O        O      0.475750000000     0.852400000000     0.975750000000     0          
O        O      0.453450000000     0.796550000000     0.500000000000     0          
T        Si     0.466000000000     0.814400000000     0.966000000000     0          
O        O      0.024250000000     0.647600000000     0.524250000000     0          
O        O      0.000000000000     0.703450000000     0.546550000000     0          
O        O      0.062500000000     0.686050000000     0.562500000000     0          
T        Si     0.034000000000     0.685600000000     0.534000000000     0          
O        O      0.274250000000     0.727400000000     0.600750000000     0          
O        O      0.250000000000     0.671550000000     0.578450000000     0          
O        O      0.312500000000     0.688950000000     0.562500000000     0          
O        O      0.335800000000     0.789200000000     0.539200000000     0          
T        Si     0.284000000000     0.689400000000     0.591000000000     0          
T        Si     0.359050000000     0.765950000000     0.515950000000     0          
T        Si     0.312500000000     0.812500000000     0.562500000000     0          
O        O      0.272600000000     0.899250000000     0.725750000000     0          
O        O      0.328450000000     0.875000000000     0.703450000000     0          
O        O      0.311050000000     0.937500000000     0.687500000000     0          
O        O      0.210800000000     0.960800000000     0.664200000000     0          
T        Si     0.310600000000     0.909000000000     0.716000000000     0          
T        Si     0.234050000000     0.984050000000     0.640950000000     0          
T        Si     0.187500000000     0.937500000000     0.687500000000     0          
O        O      0.100750000000     0.897600000000     0.850750000000     0          
O        O      0.125000000000     0.953450000000     0.828450000000     0          
O        O      0.062500000000     0.936050000000     0.812500000000     0          
O        O      0.039200000000     0.835800000000     0.789200000000     0          
T        Si     0.091000000000     0.935600000000     0.841000000000     0          
T        Si     0.015950000000     0.859050000000     0.765950000000     0          
T        Si     0.062500000000     0.812500000000     0.812500000000     0          
O        O      0.352400000000     0.725750000000     0.725750000000     0          
O        O      0.296550000000     0.750000000000     0.703450000000     0          
O        O      0.313950000000     0.687500000000     0.687500000000     0          
O        O      0.414200000000     0.664200000000     0.664200000000     0          
T        Si     0.314400000000     0.716000000000     0.716000000000     0          
T        Si     0.390950000000     0.640950000000     0.640950000000     0          
O        O      0.100750000000     0.977400000000     0.524250000000     0          
O        O      0.125000000000     0.921550000000     0.546550000000     0          
O        O      0.062500000000     0.938950000000     0.562500000000     0          
O        O      0.039200000000     0.539200000000     0.585800000000     0          
T        Si     0.091000000000     0.939400000000     0.534000000000     0          
T        Si     0.015950000000     0.515950000000     0.609050000000     0          
O        O      0.272600000000     0.975750000000     0.649250000000     0          
O        O      0.210800000000     0.914200000000     0.710800000000     0          
T        Si     0.310600000000     0.966000000000     0.659000000000     0          
T        Si     0.234050000000     0.890950000000     0.734050000000     0          
O        O      0.102400000000     0.649250000000     0.899250000000     0          
O        O      0.063950000000     0.687500000000     0.937500000000     0          
O        O      0.164200000000     0.710800000000     0.960800000000     0          
T        Si     0.064400000000     0.659000000000     0.909000000000     0          
T        Si     0.140950000000     0.734050000000     0.984050000000     0          
T        Si     0.187500000000     0.687500000000     0.937500000000     0          
O        O      0.453450000000     0.500000000000     0.796550000000     0          
O        O      0.024250000000     0.850750000000     0.727400000000     0          
O        O      0.000000000000     0.828450000000     0.671550000000     0          
O        O      0.062500000000     0.812500000000     0.688950000000     0          
O        O      0.085800000000     0.789200000000     0.789200000000     0          
T        Si     0.034000000000     0.841000000000     0.689400000000     0          
T        Si     0.109050000000     0.765950000000     0.765950000000     0          
O        O      0.149250000000     0.899250000000     0.602400000000     0          
O        O      0.171550000000     0.875000000000     0.546550000000     0          
O        O      0.187500000000     0.937500000000     0.563950000000     0          
T        Si     0.159000000000     0.909000000000     0.564400000000     0          
O        O      0.100750000000     0.524250000000     0.977400000000     0          
O        O      0.125000000000     0.546550000000     0.921550000000     0          
O        O      0.039200000000     0.585800000000     0.539200000000     0          
T        Si     0.091000000000     0.534000000000     0.939400000000     0          
T        Si     0.015950000000     0.609050000000     0.515950000000     0          
O        O      0.475750000000     0.899250000000     0.522600000000     0          
O        O      0.453450000000     0.875000000000     0.578450000000     0          
O        O      0.414200000000     0.960800000000     0.960800000000     0          
T        Si     0.466000000000     0.909000000000     0.560600000000     0          
T        Si     0.390950000000     0.984050000000     0.984050000000     0          
O        O      0.100750000000     0.850750000000     0.897600000000     0          
O        O      0.125000000000     0.828450000000     0.953450000000     0          
O        O      0.062500000000     0.812500000000     0.936050000000     0          
O        O      0.039200000000     0.789200000000     0.835800000000     0          
T        Si     0.091000000000     0.841000000000     0.935600000000     0          
T        Si     0.015950000000     0.765950000000     0.859050000000     0          
O        O      0.149250000000     0.975750000000     0.772600000000     0          
O        O      0.171550000000     0.500000000000     0.828450000000     0          
O        O      0.187500000000     0.937500000000     0.811050000000     0          
T        Si     0.159000000000     0.966000000000     0.810600000000     0          
O        O      0.000000000000     0.546550000000     0.703450000000     0          
O        O      0.352400000000     0.975750000000     0.975750000000     0          
O        O      0.296550000000     0.953450000000     0.500000000000     0          
O        O      0.313950000000     0.937500000000     0.937500000000     0          
T        Si     0.314400000000     0.966000000000     0.966000000000     0          
O        O      0.024250000000     0.727400000000     0.850750000000     0          
O        O      0.046550000000     0.671550000000     0.875000000000     0          
O        O      0.062500000000     0.688950000000     0.812500000000     0          
T        Si     0.034000000000     0.689400000000     0.841000000000     0          
O        O      0.328450000000     0.921550000000     0.750000000000     0          
O        O      0.100750000000     0.647600000000     0.600750000000     0          
O        O      0.078450000000     0.703450000000     0.625000000000     0          
T        Si     0.091000000000     0.685600000000     0.591000000000     0          
O        O      0.352400000000     0.899250000000     0.899250000000     0          
O        O      0.296550000000     0.921550000000     0.875000000000     0          
T        Si     0.314400000000     0.909000000000     0.909000000000     0          
O        O      0.100750000000     0.727400000000     0.774250000000     0          
O        O      0.078450000000     0.671550000000     0.750000000000     0          
T        Si     0.091000000000     0.689400000000     0.784000000000     0          
O        O      0.328450000000     0.953450000000     0.625000000000     0          
O        O      0.046550000000     0.703450000000     0.500000000000     0          
O        O      0.000000000000     0.796550000000     0.953450000000     0          
O        O      0.225750000000     0.772600000000     0.899250000000     0          
O        O      0.250000000000     0.828450000000     0.921550000000     0          
O        O      0.187500000000     0.811050000000     0.937500000000     0          
T        Si     0.216000000000     0.810600000000     0.909000000000     0          
O        O      0.171550000000     0.625000000000     0.796550000000     0          
O        O      0.399250000000     0.602400000000     0.649250000000     0          
O        O      0.375000000000     0.546550000000     0.671550000000     0          
O        O      0.437500000000     0.563950000000     0.687500000000     0          
O        O      0.460800000000     0.664200000000     0.710800000000     0          
T        Si     0.409000000000     0.564400000000     0.659000000000     0          
T        Si     0.484050000000     0.640950000000     0.734050000000     0          
O        O      0.147600000000     0.774250000000     0.774250000000     0          
O        O      0.203450000000     0.750000000000     0.796550000000     0          
O        O      0.186050000000     0.812500000000     0.812500000000     0          
O        O      0.085800000000     0.835800000000     0.835800000000     0          
T        Si     0.185600000000     0.784000000000     0.784000000000     0          
T        Si     0.109050000000     0.859050000000     0.859050000000     0          
O        O      0.399250000000     0.522600000000     0.975750000000     0          
O        O      0.375000000000     0.578450000000     0.953450000000     0          
O        O      0.437500000000     0.561050000000     0.937500000000     0          
O        O      0.460800000000     0.960800000000     0.914200000000     0          
T        Si     0.409000000000     0.560600000000     0.966000000000     0          
T        Si     0.484050000000     0.984050000000     0.890950000000     0          
O        O      0.397600000000     0.850750000000     0.600750000000     0          
O        O      0.436050000000     0.812500000000     0.562500000000     0          
T        Si     0.435600000000     0.841000000000     0.591000000000     0          
O        O      0.024250000000     0.774250000000     0.897600000000     0          
O        O      0.046550000000     0.750000000000     0.953450000000     0          
T        Si     0.034000000000     0.784000000000     0.935600000000     0          
O        O      0.000000000000     0.921550000000     0.578450000000     0          
O        O      0.350750000000     0.850750000000     0.647600000000     0          
O        O      0.312500000000     0.812500000000     0.686050000000     0          
O        O      0.289200000000     0.789200000000     0.585800000000     0          
T        Si     0.341000000000     0.841000000000     0.685600000000     0          
T        Si     0.265950000000     0.765950000000     0.609050000000     0          
O        O      0.399250000000     0.725750000000     0.772600000000     0          
O        O      0.375000000000     0.703450000000     0.828450000000     0          
T        Si     0.409000000000     0.716000000000     0.810600000000     0          
O        O      0.046550000000     0.875000000000     0.671550000000     0          
O        O      0.399250000000     0.899250000000     0.852400000000     0          
O        O      0.375000000000     0.921550000000     0.796550000000     0          
T        Si     0.409000000000     0.909000000000     0.814400000000     0          
O        O      0.350750000000     0.774250000000     0.977400000000     0          
O        O      0.328450000000     0.750000000000     0.921550000000     0          
O        O      0.312500000000     0.812500000000     0.938950000000     0          
O        O      0.289200000000     0.835800000000     0.539200000000     0          
T        Si     0.341000000000     0.784000000000     0.939400000000     0          
T        Si     0.265950000000     0.859050000000     0.515950000000     0          
O        O      0.475750000000     0.725750000000     0.602400000000     0          
T        Si     0.466000000000     0.716000000000     0.564400000000     0          
O        O      0.203450000000     0.796550000000     0.750000000000     0          
O        O      0.475750000000     0.522600000000     0.899250000000     0          
O        O      0.453450000000     0.578450000000     0.875000000000     0          
T        Si     0.466000000000     0.560600000000     0.909000000000     0          
O        O      0.227400000000     0.850750000000     0.524250000000     0          
O        O      0.171550000000     0.828450000000     0.500000000000     0          
O        O      0.188950000000     0.812500000000     0.562500000000     0          
T        Si     0.189400000000     0.841000000000     0.534000000000     0          
O        O      0.421550000000     0.546550000000     0.625000000000     0          
O        O      0.147600000000     0.850750000000     0.850750000000     0          
O        O      0.203450000000     0.828450000000     0.875000000000     0          
T        Si     0.185600000000     0.841000000000     0.841000000000     0          
O        O      0.421550000000     0.578450000000     0.500000000000     0          
O        O      0.227400000000     0.774250000000     0.600750000000     0          
O        O      0.171550000000     0.796550000000     0.625000000000     0          
T        Si     0.189400000000     0.784000000000     0.591000000000     0          
O        O      0.475750000000     0.602400000000     0.725750000000     0          
O        O      0.453450000000     0.546550000000     0.750000000000     0          
T        Si     0.466000000000     0.564400000000     0.716000000000     0          
O        O      0.024250000000     0.897600000000     0.774250000000     0          
T        Si     0.034000000000     0.935600000000     0.784000000000     0          
O        O      0.274250000000     0.977400000000     0.850750000000     0          
O        O      0.250000000000     0.921550000000     0.828450000000     0          
O        O      0.312500000000     0.938950000000     0.812500000000     0          
O        O      0.335800000000     0.539200000000     0.789200000000     0          
T        Si     0.284000000000     0.939400000000     0.841000000000     0          
T        Si     0.359050000000     0.515950000000     0.765950000000     0          
O        O      0.272600000000     0.649250000000     0.975750000000     0          
O        O      0.311050000000     0.687500000000     0.937500000000     0          
O        O      0.210800000000     0.710800000000     0.914200000000     0          
T        Si     0.310600000000     0.659000000000     0.966000000000     0          
T        Si     0.234050000000     0.734050000000     0.890950000000     0          
O        O      0.125000000000     0.703450000000     0.578450000000     0          
O        O      0.296550000000     0.500000000000     0.953450000000     0          
O        O      0.125000000000     0.671550000000     0.796550000000     0          
O        O      0.272600000000     0.725750000000     0.899250000000     0          
O        O      0.210800000000     0.664200000000     0.960800000000     0          
T        Si     0.310600000000     0.716000000000     0.909000000000     0          
T        Si     0.234050000000     0.640950000000     0.984050000000     0          
O        O      0.102400000000     0.899250000000     0.649250000000     0          
O        O      0.063950000000     0.937500000000     0.687500000000     0          
O        O      0.164200000000     0.960800000000     0.710800000000     0          
T        Si     0.064400000000     0.909000000000     0.659000000000     0          
T        Si     0.140950000000     0.984050000000     0.734050000000     0          
O        O      0.453450000000     0.750000000000     0.546550000000     0          
O        O      0.000000000000     0.578450000000     0.921550000000     0          
O        O      0.149250000000     0.649250000000     0.852400000000     0          
O        O      0.187500000000     0.687500000000     0.813950000000     0          
T        Si     0.159000000000     0.659000000000     0.814400000000     0          
O        O      0.100750000000     0.774250000000     0.727400000000     0          
O        O      0.125000000000     0.796550000000     0.671550000000     0          
T        Si     0.091000000000     0.784000000000     0.689400000000     0          
O        O      0.453450000000     0.625000000000     0.828450000000     0          
O        O      0.100750000000     0.600750000000     0.647600000000     0          
O        O      0.125000000000     0.578450000000     0.703450000000     0          
T        Si     0.091000000000     0.591000000000     0.685600000000     0          
O        O      0.149250000000     0.725750000000     0.522600000000     0          
O        O      0.171550000000     0.750000000000     0.578450000000     0          
O        O      0.187500000000     0.687500000000     0.561050000000     0          
T        Si     0.159000000000     0.716000000000     0.560600000000     0          
O        O      0.296550000000     0.703450000000     0.750000000000     0          
O        O      0.024250000000     0.977400000000     0.600750000000     0          
O        O      0.046550000000     0.921550000000     0.625000000000     0          
T        Si     0.034000000000     0.939400000000     0.591000000000     0          
O        O      0.328450000000     0.671550000000     0.500000000000     0          
O        O      0.078450000000     0.953450000000     0.875000000000     0          
O        O      0.352400000000     0.649250000000     0.649250000000     0          
O        O      0.296550000000     0.671550000000     0.625000000000     0          
T        Si     0.314400000000     0.659000000000     0.659000000000     0          
O        O      0.078450000000     0.921550000000     0.500000000000     0          
O        O      0.328450000000     0.703450000000     0.875000000000     0          
O        O      0.046550000000     0.953450000000     0.750000000000     0          
O        O      0.225750000000     0.522600000000     0.649250000000     0          
O        O      0.250000000000     0.578450000000     0.671550000000     0          
O        O      0.187500000000     0.561050000000     0.687500000000     0          
T        Si     0.216000000000     0.560600000000     0.659000000000     0          
O        O      0.375000000000     0.796550000000     0.921550000000     0          
O        O      0.203450000000     0.500000000000     0.546550000000     0          
O        O      0.375000000000     0.828450000000     0.703450000000     0          
O        O      0.397600000000     0.600750000000     0.850750000000     0          
O        O      0.436050000000     0.562500000000     0.812500000000     0          
T        Si     0.435600000000     0.591000000000     0.841000000000     0          
O        O      0.274250000000     0.524250000000     0.897600000000     0          
O        O      0.335800000000     0.585800000000     0.835800000000     0          
T        Si     0.284000000000     0.534000000000     0.935600000000     0          
T        Si     0.359050000000     0.609050000000     0.859050000000     0          
O        O      0.225750000000     0.649250000000     0.522600000000     0          
T        Si     0.216000000000     0.659000000000     0.560600000000     0          
O        O      0.078450000000     0.625000000000     0.703450000000     0          
O        O      0.274250000000     0.600750000000     0.727400000000     0          
O        O      0.296550000000     0.625000000000     0.671550000000     0          
T        Si     0.284000000000     0.591000000000     0.689400000000     0          
O        O      0.078450000000     0.500000000000     0.921550000000     0          
O        O      0.225750000000     0.975750000000     0.602400000000     0          
O        O      0.250000000000     0.953450000000     0.546550000000     0          
O        O      0.164200000000     0.914200000000     0.664200000000     0          
T        Si     0.216000000000     0.966000000000     0.564400000000     0          
T        Si     0.140950000000     0.890950000000     0.640950000000     0          
O        O      0.397600000000     0.524250000000     0.774250000000     0          
T        Si     0.435600000000     0.534000000000     0.784000000000     0          
O        O      0.477400000000     0.600750000000     0.524250000000     0          
O        O      0.438950000000     0.562500000000     0.562500000000     0          
T        Si     0.439400000000     0.591000000000     0.534000000000     0          
O        O      0.149250000000     0.852400000000     0.649250000000     0          
O        O      0.187500000000     0.813950000000     0.687500000000     0          
T        Si     0.159000000000     0.814400000000     0.659000000000     0          
O        O      0.149250000000     0.772600000000     0.975750000000     0          
T        Si     0.159000000000     0.810600000000     0.966000000000     0          
O        O      0.477400000000     0.524250000000     0.600750000000     0          
T        Si     0.439400000000     0.534000000000     0.591000000000     0          
O        O      0.225750000000     0.852400000000     0.725750000000     0          
T        Si     0.216000000000     0.814400000000     0.716000000000     0          
O        O      0.274250000000     0.647600000000     0.774250000000     0          
O        O      0.250000000000     0.703450000000     0.796550000000     0          
O        O      0.312500000000     0.686050000000     0.812500000000     0          
T        Si     0.284000000000     0.685600000000     0.784000000000     0          
O        O      0.022600000000     0.899250000000     0.975750000000     0          
O        O      0.078450000000     0.875000000000     0.953450000000     0          
O        O      0.061050000000     0.937500000000     0.937500000000     0          
T        Si     0.060600000000     0.909000000000     0.966000000000     0          
O        O      0.350750000000     0.897600000000     0.600750000000     0          
O        O      0.312500000000     0.936050000000     0.562500000000     0          
T        Si     0.341000000000     0.935600000000     0.591000000000     0          
O        O      0.102400000000     0.725750000000     0.975750000000     0          
O        O      0.164200000000     0.664200000000     0.914200000000     0          
T        Si     0.064400000000     0.716000000000     0.966000000000     0          
T        Si     0.140950000000     0.640950000000     0.890950000000     0          
O        O      0.350750000000     0.977400000000     0.774250000000     0          
T        Si     0.341000000000     0.939400000000     0.784000000000     0          
O        O      0.022600000000     0.975750000000     0.899250000000     0          
T        Si     0.060600000000     0.966000000000     0.909000000000     0          
O        O      0.274250000000     0.850750000000     0.977400000000     0          
T        Si     0.284000000000     0.841000000000     0.939400000000     0          
O        O      0.421550000000     0.875000000000     0.796550000000     0          
O        O      0.225750000000     0.899250000000     0.772600000000     0          
O        O      0.203450000000     0.875000000000     0.828450000000     0          
T        Si     0.216000000000     0.909000000000     0.810600000000     0          
O        O      0.421550000000     0.500000000000     0.578450000000     0          
O        O      0.250000000000     0.546550000000     0.953450000000     0          
O        O      0.102400000000     0.975750000000     0.725750000000     0          
T        Si     0.064400000000     0.966000000000     0.716000000000     0          
O        O      0.350750000000     0.647600000000     0.850750000000     0          
T        Si     0.341000000000     0.685600000000     0.841000000000     0          
O        O      0.350750000000     0.727400000000     0.524250000000     0          
T        Si     0.341000000000     0.689400000000     0.534000000000     0          
O        O      0.250000000000     0.796550000000     0.703450000000     0          
O        O      0.421550000000     0.625000000000     0.546550000000     0          
O        O      0.149250000000     0.602400000000     0.899250000000     0          
O        O      0.187500000000     0.563950000000     0.937500000000     0          
T        Si     0.159000000000     0.564400000000     0.909000000000     0          
O        O      0.397600000000     0.774250000000     0.524250000000     0          
O        O      0.335800000000     0.835800000000     0.585800000000     0          
T        Si     0.435600000000     0.784000000000     0.534000000000     0          
T        Si     0.359050000000     0.859050000000     0.609050000000     0          
O        O      0.149250000000     0.522600000000     0.725750000000     0          
T        Si     0.159000000000     0.560600000000     0.716000000000     0          
O        O      0.274250000000     0.774250000000     0.647600000000     0          
T        Si     0.284000000000     0.784000000000     0.685600000000     0          
O        O      0.296550000000     0.875000000000     0.921550000000     0          
O        O      0.078450000000     0.750000000000     0.671550000000     0          
O        O      0.225750000000     0.725750000000     0.852400000000     0          
T        Si     0.216000000000     0.716000000000     0.814400000000     0          
O        O      0.477400000000     0.850750000000     0.774250000000     0          
O        O      0.438950000000     0.812500000000     0.812500000000     0          
T        Si     0.439400000000     0.841000000000     0.784000000000     0          
O        O      0.477400000000     0.774250000000     0.850750000000     0          
T        Si     0.439400000000     0.784000000000     0.841000000000     0          
O        O      0.225750000000     0.602400000000     0.975750000000     0          
T        Si     0.216000000000     0.564400000000     0.966000000000     0          
O        O      0.274250000000     0.897600000000     0.524250000000     0          
T        Si     0.284000000000     0.935600000000     0.534000000000     0          
O        O      0.022600000000     0.649250000000     0.725750000000     0          
O        O      0.061050000000     0.687500000000     0.687500000000     0          
T        Si     0.060600000000     0.659000000000     0.716000000000     0          
O        O      0.022600000000     0.725750000000     0.649250000000     0          
T        Si     0.060600000000     0.716000000000     0.659000000000     0          
O        O      0.203450000000     0.625000000000     0.578450000000     0          
O        O      0.421550000000     0.750000000000     0.828450000000     0          
O        O      0.524250000000     0.024250000000     0.147600000000     0          
O        O      0.546550000000     0.000000000000     0.203450000000     0          
O        O      0.562500000000     0.062500000000     0.186050000000     0          
O        O      0.585800000000     0.085800000000     0.085800000000     0          
T        Si     0.534000000000     0.034000000000     0.185600000000     0          
T        Si     0.609050000000     0.109050000000     0.109050000000     0          
T        Si     0.562500000000     0.062500000000     0.062500000000     0          
O        O      0.975750000000     0.149250000000     0.272600000000     0          
O        O      0.500000000000     0.171550000000     0.328450000000     0          
O        O      0.937500000000     0.187500000000     0.311050000000     0          
O        O      0.914200000000     0.210800000000     0.210800000000     0          
T        Si     0.966000000000     0.159000000000     0.310600000000     0          
T        Si     0.890950000000     0.234050000000     0.234050000000     0          
T        Si     0.937500000000     0.187500000000     0.187500000000     0          
O        O      0.850750000000     0.100750000000     0.397600000000     0          
O        O      0.828450000000     0.125000000000     0.453450000000     0          
O        O      0.812500000000     0.062500000000     0.436050000000     0          
O        O      0.789200000000     0.039200000000     0.335800000000     0          
T        Si     0.841000000000     0.091000000000     0.435600000000     0          
T        Si     0.765950000000     0.015950000000     0.359050000000     0          
T        Si     0.812500000000     0.062500000000     0.312500000000     0          
O        O      0.899250000000     0.475750000000     0.022600000000     0          
O        O      0.875000000000     0.453450000000     0.078450000000     0          
O        O      0.937500000000     0.437500000000     0.061050000000     0          
O        O      0.960800000000     0.414200000000     0.460800000000     0          
T        Si     0.909000000000     0.466000000000     0.060600000000     0          
T        Si     0.984050000000     0.390950000000     0.484050000000     0          
T        Si     0.937500000000     0.437500000000     0.437500000000     0          
O        O      0.524250000000     0.100750000000     0.477400000000     0          
O        O      0.546550000000     0.125000000000     0.421550000000     0          
O        O      0.562500000000     0.062500000000     0.438950000000     0          
O        O      0.585800000000     0.039200000000     0.039200000000     0          
T        Si     0.534000000000     0.091000000000     0.439400000000     0          
T        Si     0.609050000000     0.015950000000     0.015950000000     0          
O        O      0.899250000000     0.149250000000     0.102400000000     0          
O        O      0.875000000000     0.171550000000     0.046550000000     0          
O        O      0.937500000000     0.187500000000     0.063950000000     0          
O        O      0.960800000000     0.210800000000     0.164200000000     0          
T        Si     0.909000000000     0.159000000000     0.064400000000     0          
T        Si     0.984050000000     0.234050000000     0.140950000000     0          
O        O      0.850750000000     0.024250000000     0.227400000000     0          
O        O      0.828450000000     0.000000000000     0.171550000000     0          
O        O      0.812500000000     0.062500000000     0.188950000000     0          
O        O      0.789200000000     0.085800000000     0.289200000000     0          
T        Si     0.841000000000     0.034000000000     0.189400000000     0          
T        Si     0.765950000000     0.109050000000     0.265950000000     0          
O        O      0.975750000000     0.475750000000     0.352400000000     0          
O        O      0.500000000000     0.453450000000     0.296550000000     0          
O        O      0.937500000000     0.437500000000     0.313950000000     0          
O        O      0.914200000000     0.414200000000     0.414200000000     0          
T        Si     0.966000000000     0.466000000000     0.314400000000     0          
T        Si     0.890950000000     0.390950000000     0.390950000000     0          
O        O      0.647600000000     0.024250000000     0.024250000000     0          
O        O      0.703450000000     0.046550000000     0.000000000000     0          
O        O      0.686050000000     0.062500000000     0.062500000000     0          
T        Si     0.685600000000     0.034000000000     0.034000000000     0          
O        O      0.975750000000     0.272600000000     0.149250000000     0          
O        O      0.953450000000     0.328450000000     0.125000000000     0          
O        O      0.937500000000     0.311050000000     0.187500000000     0          
T        Si     0.966000000000     0.310600000000     0.159000000000     0          
O        O      0.727400000000     0.100750000000     0.274250000000     0          
O        O      0.671550000000     0.078450000000     0.250000000000     0          
O        O      0.688950000000     0.062500000000     0.312500000000     0          
T        Si     0.689400000000     0.091000000000     0.284000000000     0          
O        O      0.899250000000     0.352400000000     0.399250000000     0          
O        O      0.921550000000     0.296550000000     0.375000000000     0          
O        O      0.937500000000     0.313950000000     0.437500000000     0          
T        Si     0.909000000000     0.314400000000     0.409000000000     0          
O        O      0.647600000000     0.100750000000     0.100750000000     0          
O        O      0.703450000000     0.078450000000     0.125000000000     0          
T        Si     0.685600000000     0.091000000000     0.091000000000     0          
O        O      0.899250000000     0.272600000000     0.225750000000     0          
O        O      0.921550000000     0.328450000000     0.250000000000     0          
T        Si     0.909000000000     0.310600000000     0.216000000000     0          
O        O      0.727400000000     0.024250000000     0.350750000000     0          
O        O      0.671550000000     0.046550000000     0.375000000000     0          
T        Si     0.689400000000     0.034000000000     0.341000000000     0          
O        O      0.975750000000     0.352400000000     0.475750000000     0          
O        O      0.953450000000     0.296550000000     0.000000000000     0          
T        Si     0.966000000000     0.314400000000     0.466000000000     0          
O        O      0.524250000000     0.147600000000     0.024250000000     0          
O        O      0.500000000000     0.203450000000     0.046550000000     0          
O        O      0.562500000000     0.186050000000     0.062500000000     0          
T        Si     0.534000000000     0.185600000000     0.034000000000     0          
O        O      0.774250000000     0.227400000000     0.100750000000     0          
O        O      0.750000000000     0.171550000000     0.078450000000     0          
O        O      0.812500000000     0.188950000000     0.062500000000     0          
O        O      0.835800000000     0.289200000000     0.039200000000     0          
T        Si     0.784000000000     0.189400000000     0.091000000000     0          
T        Si     0.859050000000     0.265950000000     0.015950000000     0          
T        Si     0.812500000000     0.312500000000     0.062500000000     0          
O        O      0.772600000000     0.399250000000     0.225750000000     0          
O        O      0.828450000000     0.375000000000     0.203450000000     0          
O        O      0.811050000000     0.437500000000     0.187500000000     0          
O        O      0.710800000000     0.460800000000     0.164200000000     0          
T        Si     0.810600000000     0.409000000000     0.216000000000     0          
T        Si     0.734050000000     0.484050000000     0.140950000000     0          
T        Si     0.687500000000     0.437500000000     0.187500000000     0          
O        O      0.600750000000     0.397600000000     0.350750000000     0          
O        O      0.625000000000     0.453450000000     0.328450000000     0          
O        O      0.562500000000     0.436050000000     0.312500000000     0          
O        O      0.539200000000     0.335800000000     0.289200000000     0          
T        Si     0.591000000000     0.435600000000     0.341000000000     0          
T        Si     0.515950000000     0.359050000000     0.265950000000     0          
T        Si     0.562500000000     0.312500000000     0.312500000000     0          
O        O      0.852400000000     0.225750000000     0.225750000000     0          
O        O      0.796550000000     0.250000000000     0.203450000000     0          
O        O      0.813950000000     0.187500000000     0.187500000000     0          
O        O      0.914200000000     0.164200000000     0.164200000000     0          
T        Si     0.814400000000     0.216000000000     0.216000000000     0          
T        Si     0.890950000000     0.140950000000     0.140950000000     0          
O        O      0.600750000000     0.477400000000     0.024250000000     0          
O        O      0.625000000000     0.421550000000     0.046550000000     0          
O        O      0.562500000000     0.438950000000     0.062500000000     0          
O        O      0.539200000000     0.039200000000     0.085800000000     0          
T        Si     0.591000000000     0.439400000000     0.034000000000     0          
T        Si     0.515950000000     0.015950000000     0.109050000000     0          
O        O      0.772600000000     0.475750000000     0.149250000000     0          
O        O      0.710800000000     0.414200000000     0.210800000000     0          
T        Si     0.810600000000     0.466000000000     0.159000000000     0          
T        Si     0.734050000000     0.390950000000     0.234050000000     0          
O        O      0.602400000000     0.149250000000     0.399250000000     0          
O        O      0.563950000000     0.187500000000     0.437500000000     0          
O        O      0.664200000000     0.210800000000     0.460800000000     0          
T        Si     0.564400000000     0.159000000000     0.409000000000     0          
T        Si     0.640950000000     0.234050000000     0.484050000000     0          
T        Si     0.687500000000     0.187500000000     0.437500000000     0          
O        O      0.953450000000     0.000000000000     0.296550000000     0          
O        O      0.524250000000     0.350750000000     0.227400000000     0          
O        O      0.500000000000     0.328450000000     0.171550000000     0          
O        O      0.562500000000     0.312500000000     0.188950000000     0          
O        O      0.585800000000     0.289200000000     0.289200000000     0          
T        Si     0.534000000000     0.341000000000     0.189400000000     0          
T        Si     0.609050000000     0.265950000000     0.265950000000     0          
O        O      0.649250000000     0.399250000000     0.102400000000     0          
O        O      0.671550000000     0.375000000000     0.046550000000     0          
O        O      0.687500000000     0.437500000000     0.063950000000     0          
T        Si     0.659000000000     0.409000000000     0.064400000000     0          
O        O      0.600750000000     0.024250000000     0.477400000000     0          
O        O      0.625000000000     0.046550000000     0.421550000000     0          
O        O      0.539200000000     0.085800000000     0.039200000000     0          
T        Si     0.591000000000     0.034000000000     0.439400000000     0          
T        Si     0.515950000000     0.109050000000     0.015950000000     0          
O        O      0.975750000000     0.399250000000     0.022600000000     0          
O        O      0.953450000000     0.375000000000     0.078450000000     0          
O        O      0.914200000000     0.460800000000     0.460800000000     0          
T        Si     0.966000000000     0.409000000000     0.060600000000     0          
T        Si     0.890950000000     0.484050000000     0.484050000000     0          
O        O      0.600750000000     0.350750000000     0.397600000000     0          
O        O      0.625000000000     0.328450000000     0.453450000000     0          
O        O      0.562500000000     0.312500000000     0.436050000000     0          
O        O      0.539200000000     0.289200000000     0.335800000000     0          
T        Si     0.591000000000     0.341000000000     0.435600000000     0          
T        Si     0.515950000000     0.265950000000     0.359050000000     0          
O        O      0.649250000000     0.475750000000     0.272600000000     0          
O        O      0.671550000000     0.000000000000     0.328450000000     0          
O        O      0.687500000000     0.437500000000     0.311050000000     0          
T        Si     0.659000000000     0.466000000000     0.310600000000     0          
O        O      0.500000000000     0.046550000000     0.203450000000     0          
O        O      0.852400000000     0.475750000000     0.475750000000     0          
O        O      0.796550000000     0.453450000000     0.000000000000     0          
O        O      0.813950000000     0.437500000000     0.437500000000     0          
T        Si     0.814400000000     0.466000000000     0.466000000000     0          
O        O      0.524250000000     0.227400000000     0.350750000000     0          
O        O      0.546550000000     0.171550000000     0.375000000000     0          
O        O      0.562500000000     0.188950000000     0.312500000000     0          
T        Si     0.534000000000     0.189400000000     0.341000000000     0          
O        O      0.828450000000     0.421550000000     0.250000000000     0          
O        O      0.600750000000     0.147600000000     0.100750000000     0          
O        O      0.578450000000     0.203450000000     0.125000000000     0          
T        Si     0.591000000000     0.185600000000     0.091000000000     0          
O        O      0.852400000000     0.399250000000     0.399250000000     0          
O        O      0.796550000000     0.421550000000     0.375000000000     0          
T        Si     0.814400000000     0.409000000000     0.409000000000     0          
O        O      0.600750000000     0.227400000000     0.274250000000     0          
O        O      0.578450000000     0.171550000000     0.250000000000     0          
T        Si     0.591000000000     0.189400000000     0.284000000000     0          
O        O      0.828450000000     0.453450000000     0.125000000000     0          
O        O      0.546550000000     0.203450000000     0.000000000000     0          
O        O      0.500000000000     0.296550000000     0.453450000000     0          
O        O      0.725750000000     0.272600000000     0.399250000000     0          
O        O      0.750000000000     0.328450000000     0.421550000000     0          
O        O      0.687500000000     0.311050000000     0.437500000000     0          
T        Si     0.716000000000     0.310600000000     0.409000000000     0          
O        O      0.671550000000     0.125000000000     0.296550000000     0          
O        O      0.899250000000     0.102400000000     0.149250000000     0          
O        O      0.875000000000     0.046550000000     0.171550000000     0          
O        O      0.937500000000     0.063950000000     0.187500000000     0          
O        O      0.960800000000     0.164200000000     0.210800000000     0          
T        Si     0.909000000000     0.064400000000     0.159000000000     0          
T        Si     0.984050000000     0.140950000000     0.234050000000     0          
O        O      0.647600000000     0.274250000000     0.274250000000     0          
O        O      0.703450000000     0.250000000000     0.296550000000     0          
O        O      0.686050000000     0.312500000000     0.312500000000     0          
O        O      0.585800000000     0.335800000000     0.335800000000     0          
T        Si     0.685600000000     0.284000000000     0.284000000000     0          
T        Si     0.609050000000     0.359050000000     0.359050000000     0          
O        O      0.899250000000     0.022600000000     0.475750000000     0          
O        O      0.875000000000     0.078450000000     0.453450000000     0          
O        O      0.937500000000     0.061050000000     0.437500000000     0          
O        O      0.960800000000     0.460800000000     0.414200000000     0          
T        Si     0.909000000000     0.060600000000     0.466000000000     0          
T        Si     0.984050000000     0.484050000000     0.390950000000     0          
O        O      0.897600000000     0.350750000000     0.100750000000     0          
O        O      0.936050000000     0.312500000000     0.062500000000     0          
T        Si     0.935600000000     0.341000000000     0.091000000000     0          
O        O      0.524250000000     0.274250000000     0.397600000000     0          
O        O      0.546550000000     0.250000000000     0.453450000000     0          
T        Si     0.534000000000     0.284000000000     0.435600000000     0          
O        O      0.500000000000     0.421550000000     0.078450000000     0          
O        O      0.850750000000     0.350750000000     0.147600000000     0          
O        O      0.812500000000     0.312500000000     0.186050000000     0          
O        O      0.789200000000     0.289200000000     0.085800000000     0          
T        Si     0.841000000000     0.341000000000     0.185600000000     0          
T        Si     0.765950000000     0.265950000000     0.109050000000     0          
O        O      0.899250000000     0.225750000000     0.272600000000     0          
O        O      0.875000000000     0.203450000000     0.328450000000     0          
T        Si     0.909000000000     0.216000000000     0.310600000000     0          
O        O      0.546550000000     0.375000000000     0.171550000000     0          
O        O      0.899250000000     0.399250000000     0.352400000000     0          
O        O      0.875000000000     0.421550000000     0.296550000000     0          
T        Si     0.909000000000     0.409000000000     0.314400000000     0          
O        O      0.850750000000     0.274250000000     0.477400000000     0          
O        O      0.828450000000     0.250000000000     0.421550000000     0          
O        O      0.812500000000     0.312500000000     0.438950000000     0          
O        O      0.789200000000     0.335800000000     0.039200000000     0          
T        Si     0.841000000000     0.284000000000     0.439400000000     0          
T        Si     0.765950000000     0.359050000000     0.015950000000     0          
O        O      0.975750000000     0.225750000000     0.102400000000     0          
T        Si     0.966000000000     0.216000000000     0.064400000000     0          
O        O      0.703450000000     0.296550000000     0.250000000000     0          
O        O      0.975750000000     0.022600000000     0.399250000000     0          
O        O      0.953450000000     0.078450000000     0.375000000000     0          
T        Si     0.966000000000     0.060600000000     0.409000000000     0          
O        O      0.727400000000     0.350750000000     0.024250000000     0          
O        O      0.671550000000     0.328450000000     0.000000000000     0          
O        O      0.688950000000     0.312500000000     0.062500000000     0          
T        Si     0.689400000000     0.341000000000     0.034000000000     0          
O        O      0.921550000000     0.046550000000     0.125000000000     0          
O        O      0.647600000000     0.350750000000     0.350750000000     0          
O        O      0.703450000000     0.328450000000     0.375000000000     0          
T        Si     0.685600000000     0.341000000000     0.341000000000     0          
O        O      0.921550000000     0.078450000000     0.000000000000     0          
O        O      0.727400000000     0.274250000000     0.100750000000     0          
O        O      0.671550000000     0.296550000000     0.125000000000     0          
T        Si     0.689400000000     0.284000000000     0.091000000000     0          
O        O      0.975750000000     0.102400000000     0.225750000000     0          
O        O      0.953450000000     0.046550000000     0.250000000000     0          
T        Si     0.966000000000     0.064400000000     0.216000000000     0          
O        O      0.524250000000     0.397600000000     0.274250000000     0          
T        Si     0.534000000000     0.435600000000     0.284000000000     0          
O        O      0.774250000000     0.477400000000     0.350750000000     0          
O        O      0.750000000000     0.421550000000     0.328450000000     0          
O        O      0.812500000000     0.438950000000     0.312500000000     0          
O        O      0.835800000000     0.039200000000     0.289200000000     0          
T        Si     0.784000000000     0.439400000000     0.341000000000     0          
T        Si     0.859050000000     0.015950000000     0.265950000000     0          
O        O      0.772600000000     0.149250000000     0.475750000000     0          
O        O      0.811050000000     0.187500000000     0.437500000000     0          
O        O      0.710800000000     0.210800000000     0.414200000000     0          
T        Si     0.810600000000     0.159000000000     0.466000000000     0          
T        Si     0.734050000000     0.234050000000     0.390950000000     0          
O        O      0.625000000000     0.203450000000     0.078450000000     0          
O        O      0.796550000000     0.000000000000     0.453450000000     0          
O        O      0.625000000000     0.171550000000     0.296550000000     0          
O        O      0.772600000000     0.225750000000     0.399250000000     0          
O        O      0.710800000000     0.164200000000     0.460800000000     0          
T        Si     0.810600000000     0.216000000000     0.409000000000     0          
T        Si     0.734050000000     0.140950000000     0.484050000000     0          
O        O      0.602400000000     0.399250000000     0.149250000000     0          
O        O      0.563950000000     0.437500000000     0.187500000000     0          
O        O      0.664200000000     0.460800000000     0.210800000000     0          
T        Si     0.564400000000     0.409000000000     0.159000000000     0          
T        Si     0.640950000000     0.484050000000     0.234050000000     0          
O        O      0.953450000000     0.250000000000     0.046550000000     0          
O        O      0.500000000000     0.078450000000     0.421550000000     0          
O        O      0.649250000000     0.149250000000     0.352400000000     0          
O        O      0.687500000000     0.187500000000     0.313950000000     0          
T        Si     0.659000000000     0.159000000000     0.314400000000     0          
O        O      0.600750000000     0.274250000000     0.227400000000     0          
O        O      0.625000000000     0.296550000000     0.171550000000     0          
T        Si     0.591000000000     0.284000000000     0.189400000000     0          
O        O      0.953450000000     0.125000000000     0.328450000000     0          
O        O      0.600750000000     0.100750000000     0.147600000000     0          
O        O      0.625000000000     0.078450000000     0.203450000000     0          
T        Si     0.591000000000     0.091000000000     0.185600000000     0          
O        O      0.649250000000     0.225750000000     0.022600000000     0          
O        O      0.671550000000     0.250000000000     0.078450000000     0          
O        O      0.687500000000     0.187500000000     0.061050000000     0          
T        Si     0.659000000000     0.216000000000     0.060600000000     0          
O        O      0.796550000000     0.203450000000     0.250000000000     0          
O        O      0.524250000000     0.477400000000     0.100750000000     0          
O        O      0.546550000000     0.421550000000     0.125000000000     0          
T        Si     0.534000000000     0.439400000000     0.091000000000     0          
O        O      0.828450000000     0.171550000000     0.000000000000     0          
O        O      0.578450000000     0.453450000000     0.375000000000     0          
O        O      0.852400000000     0.149250000000     0.149250000000     0          
O        O      0.796550000000     0.171550000000     0.125000000000     0          
T        Si     0.814400000000     0.159000000000     0.159000000000     0          
O        O      0.578450000000     0.421550000000     0.000000000000     0          
O        O      0.828450000000     0.203450000000     0.375000000000     0          
O        O      0.546550000000     0.453450000000     0.250000000000     0          
O        O      0.725750000000     0.022600000000     0.149250000000     0          
O        O      0.750000000000     0.078450000000     0.171550000000     0          
O        O      0.687500000000     0.061050000000     0.187500000000     0          
T        Si     0.716000000000     0.060600000000     0.159000000000     0          
O        O      0.875000000000     0.296550000000     0.421550000000     0          
O        O      0.703450000000     0.000000000000     0.046550000000     0          
O        O      0.875000000000     0.328450000000     0.203450000000     0          
O        O      0.897600000000     0.100750000000     0.350750000000     0          
O        O      0.936050000000     0.062500000000     0.312500000000     0          
T        Si     0.935600000000     0.091000000000     0.341000000000     0          
O        O      0.774250000000     0.024250000000     0.397600000000     0          
O        O      0.835800000000     0.085800000000     0.335800000000     0          
T        Si     0.784000000000     0.034000000000     0.435600000000     0          
T        Si     0.859050000000     0.109050000000     0.359050000000     0          
O        O      0.725750000000     0.149250000000     0.022600000000     0          
T        Si     0.716000000000     0.159000000000     0.060600000000     0          
O        O      0.578450000000     0.125000000000     0.203450000000     0          
O        O      0.774250000000     0.100750000000     0.227400000000     0          
O        O      0.796550000000     0.125000000000     0.171550000000     0          
T        Si     0.784000000000     0.091000000000     0.189400000000     0          
O        O      0.578450000000     0.000000000000     0.421550000000     0          
O        O      0.725750000000     0.475750000000     0.102400000000     0          
O        O      0.750000000000     0.453450000000     0.046550000000     0          
O        O      0.664200000000     0.414200000000     0.164200000000     0          
T        Si     0.716000000000     0.466000000000     0.064400000000     0          
T        Si     0.640950000000     0.390950000000     0.140950000000     0          
O        O      0.897600000000     0.024250000000     0.274250000000     0          
T        Si     0.935600000000     0.034000000000     0.284000000000     0          
O        O      0.977400000000     0.100750000000     0.024250000000     0          
O        O      0.938950000000     0.062500000000     0.062500000000     0          
T        Si     0.939400000000     0.091000000000     0.034000000000     0          
O        O      0.649250000000     0.352400000000     0.149250000000     0          
O        O      0.687500000000     0.313950000000     0.187500000000     0          
T        Si     0.659000000000     0.314400000000     0.159000000000     0          
O        O      0.649250000000     0.272600000000     0.475750000000     0          
T        Si     0.659000000000     0.310600000000     0.466000000000     0          
O        O      0.977400000000     0.024250000000     0.100750000000     0          
T        Si     0.939400000000     0.034000000000     0.091000000000     0          
O        O      0.725750000000     0.352400000000     0.225750000000     0          
T        Si     0.716000000000     0.314400000000     0.216000000000     0          
O        O      0.774250000000     0.147600000000     0.274250000000     0          
O        O      0.750000000000     0.203450000000     0.296550000000     0          
O        O      0.812500000000     0.186050000000     0.312500000000     0          
T        Si     0.784000000000     0.185600000000     0.284000000000     0          
O        O      0.522600000000     0.399250000000     0.475750000000     0          
O        O      0.578450000000     0.375000000000     0.453450000000     0          
O        O      0.561050000000     0.437500000000     0.437500000000     0          
T        Si     0.560600000000     0.409000000000     0.466000000000     0          
O        O      0.850750000000     0.397600000000     0.100750000000     0          
O        O      0.812500000000     0.436050000000     0.062500000000     0          
T        Si     0.841000000000     0.435600000000     0.091000000000     0          
O        O      0.602400000000     0.225750000000     0.475750000000     0          
O        O      0.664200000000     0.164200000000     0.414200000000     0          
T        Si     0.564400000000     0.216000000000     0.466000000000     0          
T        Si     0.640950000000     0.140950000000     0.390950000000     0          
O        O      0.850750000000     0.477400000000     0.274250000000     0          
T        Si     0.841000000000     0.439400000000     0.284000000000     0          
O        O      0.522600000000     0.475750000000     0.399250000000     0          
T        Si     0.560600000000     0.466000000000     0.409000000000     0          
O        O      0.774250000000     0.350750000000     0.477400000000     0          
T        Si     0.784000000000     0.341000000000     0.439400000000     0          
O        O      0.921550000000     0.375000000000     0.296550000000     0          
O        O      0.725750000000     0.399250000000     0.272600000000     0          
O        O      0.703450000000     0.375000000000     0.328450000000     0          
T        Si     0.716000000000     0.409000000000     0.310600000000     0          
O        O      0.921550000000     0.000000000000     0.078450000000     0          
O        O      0.750000000000     0.046550000000     0.453450000000     0          
O        O      0.602400000000     0.475750000000     0.225750000000     0          
T        Si     0.564400000000     0.466000000000     0.216000000000     0          
O        O      0.850750000000     0.147600000000     0.350750000000     0          
T        Si     0.841000000000     0.185600000000     0.341000000000     0          
O        O      0.850750000000     0.227400000000     0.024250000000     0          
T        Si     0.841000000000     0.189400000000     0.034000000000     0          
O        O      0.750000000000     0.296550000000     0.203450000000     0          
O        O      0.921550000000     0.125000000000     0.046550000000     0          
O        O      0.649250000000     0.102400000000     0.399250000000     0          
O        O      0.687500000000     0.063950000000     0.437500000000     0          
T        Si     0.659000000000     0.064400000000     0.409000000000     0          
O        O      0.897600000000     0.274250000000     0.024250000000     0          
O        O      0.835800000000     0.335800000000     0.085800000000     0          
T        Si     0.935600000000     0.284000000000     0.034000000000     0          
T        Si     0.859050000000     0.359050000000     0.109050000000     0          
O        O      0.649250000000     0.022600000000     0.225750000000     0          
T        Si     0.659000000000     0.060600000000     0.216000000000     0          
O        O      0.774250000000     0.274250000000     0.147600000000     0          
T        Si     0.784000000000     0.284000000000     0.185600000000     0          
O        O      0.796550000000     0.375000000000     0.421550000000     0          
O        O      0.578450000000     0.250000000000     0.171550000000     0          
O        O      0.725750000000     0.225750000000     0.352400000000     0          
T        Si     0.716000000000     0.216000000000     0.314400000000     0          
O        O      0.977400000000     0.350750000000     0.274250000000     0          
O        O      0.938950000000     0.312500000000     0.312500000000     0          
T        Si     0.939400000000     0.341000000000     0.284000000000     0          
O        O      0.977400000000     0.274250000000     0.350750000000     0          
T        Si     0.939400000000     0.284000000000     0.341000000000     0          
O        O      0.725750000000     0.102400000000     0.475750000000     0          
T        Si     0.716000000000     0.064400000000     0.466000000000     0          
O        O      0.774250000000     0.397600000000     0.024250000000     0          
T        Si     0.784000000000     0.435600000000     0.034000000000     0          
O        O      0.522600000000     0.149250000000     0.225750000000     0          
O        O      0.561050000000     0.187500000000     0.187500000000     0          
T        Si     0.560600000000     0.159000000000     0.216000000000     0          
O        O      0.522600000000     0.225750000000     0.149250000000     0          
T        Si     0.560600000000     0.216000000000     0.159000000000     0          
O        O      0.703450000000     0.125000000000     0.078450000000     0          
O        O      0.921550000000     0.250000000000     0.328450000000     0          
O        O      0.524250000000     0.024250000000     0.647600000000     0          
O        O      0.546550000000     0.000000000000     0.703450000000     0          
O        O      0.562500000000     0.062500000000     0.686050000000     0          
O        O      0.585800000000     0.085800000000     0.585800000000     0          
T        Si     0.534000000000     0.034000000000     0.685600000000     0          
T        Si     0.609050000000     0.109050000000     0.609050000000     0          
T        Si     0.562500000000     0.062500000000     0.562500000000     0          
O        O      0.975750000000     0.149250000000     0.772600000000     0          
O        O      0.500000000000     0.171550000000     0.828450000000     0          
O        O      0.937500000000     0.187500000000     0.811050000000     0          
O        O      0.914200000000     0.210800000000     0.710800000000     0          
T        Si     0.966000000000     0.159000000000     0.810600000000     0          
T        Si     0.890950000000     0.234050000000     0.734050000000     0          
T        Si     0.937500000000     0.187500000000     0.687500000000     0          
O        O      0.850750000000     0.100750000000     0.897600000000     0          
O        O      0.828450000000     0.125000000000     0.953450000000     0          
O        O      0.812500000000     0.062500000000     0.936050000000     0          
O        O      0.789200000000     0.039200000000     0.835800000000     0          
T        Si     0.841000000000     0.091000000000     0.935600000000     0          
T        Si     0.765950000000     0.015950000000     0.859050000000     0          
T        Si     0.812500000000     0.062500000000     0.812500000000     0          
O        O      0.899250000000     0.475750000000     0.522600000000     0          
O        O      0.875000000000     0.453450000000     0.578450000000     0          
O        O      0.937500000000     0.437500000000     0.561050000000     0          
O        O      0.960800000000     0.414200000000     0.960800000000     0          
T        Si     0.909000000000     0.466000000000     0.560600000000     0          
T        Si     0.984050000000     0.390950000000     0.984050000000     0          
T        Si     0.937500000000     0.437500000000     0.937500000000     0          
O        O      0.524250000000     0.100750000000     0.977400000000     0          
O        O      0.546550000000     0.125000000000     0.921550000000     0          
O        O      0.562500000000     0.062500000000     0.938950000000     0          
O        O      0.585800000000     0.039200000000     0.539200000000     0          
T        Si     0.534000000000     0.091000000000     0.939400000000     0          
T        Si     0.609050000000     0.015950000000     0.515950000000     0          
O        O      0.899250000000     0.149250000000     0.602400000000     0          
O        O      0.875000000000     0.171550000000     0.546550000000     0          
O        O      0.937500000000     0.187500000000     0.563950000000     0          
O        O      0.960800000000     0.210800000000     0.664200000000     0          
T        Si     0.909000000000     0.159000000000     0.564400000000     0          
T        Si     0.984050000000     0.234050000000     0.640950000000     0          
O        O      0.850750000000     0.024250000000     0.727400000000     0          
O        O      0.828450000000     0.000000000000     0.671550000000     0          
O        O      0.812500000000     0.062500000000     0.688950000000     0          
O        O      0.789200000000     0.085800000000     0.789200000000     0          
T        Si     0.841000000000     0.034000000000     0.689400000000     0          
T        Si     0.765950000000     0.109050000000     0.765950000000     0          
O        O      0.975750000000     0.475750000000     0.852400000000     0          
O        O      0.500000000000     0.453450000000     0.796550000000     0          
O        O      0.937500000000     0.437500000000     0.813950000000     0          
O        O      0.914200000000     0.414200000000     0.914200000000     0          
T        Si     0.966000000000     0.466000000000     0.814400000000     0          
T        Si     0.890950000000     0.390950000000     0.890950000000     0          
O        O      0.647600000000     0.024250000000     0.524250000000     0          
O        O      0.703450000000     0.046550000000     0.500000000000     0          
O        O      0.686050000000     0.062500000000     0.562500000000     0          
T        Si     0.685600000000     0.034000000000     0.534000000000     0          
O        O      0.975750000000     0.272600000000     0.649250000000     0          
O        O      0.953450000000     0.328450000000     0.625000000000     0          
O        O      0.937500000000     0.311050000000     0.687500000000     0          
T        Si     0.966000000000     0.310600000000     0.659000000000     0          
O        O      0.727400000000     0.100750000000     0.774250000000     0          
O        O      0.671550000000     0.078450000000     0.750000000000     0          
O        O      0.688950000000     0.062500000000     0.812500000000     0          
T        Si     0.689400000000     0.091000000000     0.784000000000     0          
O        O      0.899250000000     0.352400000000     0.899250000000     0          
O        O      0.921550000000     0.296550000000     0.875000000000     0          
O        O      0.937500000000     0.313950000000     0.937500000000     0          
T        Si     0.909000000000     0.314400000000     0.909000000000     0          
O        O      0.647600000000     0.100750000000     0.600750000000     0          
O        O      0.703450000000     0.078450000000     0.625000000000     0          
T        Si     0.685600000000     0.091000000000     0.591000000000     0          
O        O      0.899250000000     0.272600000000     0.725750000000     0          
O        O      0.921550000000     0.328450000000     0.750000000000     0          
T        Si     0.909000000000     0.310600000000     0.716000000000     0          
O        O      0.727400000000     0.024250000000     0.850750000000     0          
O        O      0.671550000000     0.046550000000     0.875000000000     0          
T        Si     0.689400000000     0.034000000000     0.841000000000     0          
O        O      0.975750000000     0.352400000000     0.975750000000     0          
O        O      0.953450000000     0.296550000000     0.500000000000     0          
T        Si     0.966000000000     0.314400000000     0.966000000000     0          
O        O      0.524250000000     0.147600000000     0.524250000000     0          
O        O      0.500000000000     0.203450000000     0.546550000000     0          
O        O      0.562500000000     0.186050000000     0.562500000000     0          
T        Si     0.534000000000     0.185600000000     0.534000000000     0          
O        O      0.774250000000     0.227400000000     0.600750000000     0          
O        O      0.750000000000     0.171550000000     0.578450000000     0          
O        O      0.812500000000     0.188950000000     0.562500000000     0          
O        O      0.835800000000     0.289200000000     0.539200000000     0          
T        Si     0.784000000000     0.189400000000     0.591000000000     0          
T        Si     0.859050000000     0.265950000000     0.515950000000     0          
T        Si     0.812500000000     0.312500000000     0.562500000000     0          
O        O      0.772600000000     0.399250000000     0.725750000000     0          
O        O      0.828450000000     0.375000000000     0.703450000000     0          
O        O      0.811050000000     0.437500000000     0.687500000000     0          
O        O      0.710800000000     0.460800000000     0.664200000000     0          
T        Si     0.810600000000     0.409000000000     0.716000000000     0          
T        Si     0.734050000000     0.484050000000     0.640950000000     0          
T        Si     0.687500000000     0.437500000000     0.687500000000     0          
O        O      0.600750000000     0.397600000000     0.850750000000     0          
O        O      0.625000000000     0.453450000000     0.828450000000     0          
O        O      0.562500000000     0.436050000000     0.812500000000     0          
O        O      0.539200000000     0.335800000000     0.789200000000     0          
T        Si     0.591000000000     0.435600000000     0.841000000000     0          
T        Si     0.515950000000     0.359050000000     0.765950000000     0          
T        Si     0.562500000000     0.312500000000     0.812500000000     0          
O        O      0.852400000000     0.225750000000     0.725750000000     0          
O        O      0.796550000000     0.250000000000     0.703450000000     0          
O        O      0.813950000000     0.187500000000     0.687500000000     0          
O        O      0.914200000000     0.164200000000     0.664200000000     0          
T        Si     0.814400000000     0.216000000000     0.716000000000     0          
T        Si     0.890950000000     0.140950000000     0.640950000000     0          
O        O      0.600750000000     0.477400000000     0.524250000000     0          
O        O      0.625000000000     0.421550000000     0.546550000000     0          
O        O      0.562500000000     0.438950000000     0.562500000000     0          
O        O      0.539200000000     0.039200000000     0.585800000000     0          
T        Si     0.591000000000     0.439400000000     0.534000000000     0          
T        Si     0.515950000000     0.015950000000     0.609050000000     0          
O        O      0.772600000000     0.475750000000     0.649250000000     0          
O        O      0.710800000000     0.414200000000     0.710800000000     0          
T        Si     0.810600000000     0.466000000000     0.659000000000     0          
T        Si     0.734050000000     0.390950000000     0.734050000000     0          
O        O      0.602400000000     0.149250000000     0.899250000000     0          
O        O      0.563950000000     0.187500000000     0.937500000000     0          
O        O      0.664200000000     0.210800000000     0.960800000000     0          
T        Si     0.564400000000     0.159000000000     0.909000000000     0          
T        Si     0.640950000000     0.234050000000     0.984050000000     0          
T        Si     0.687500000000     0.187500000000     0.937500000000     0          
O        O      0.953450000000     0.000000000000     0.796550000000     0          
O        O      0.524250000000     0.350750000000     0.727400000000     0          
O        O      0.500000000000     0.328450000000     0.671550000000     0          
O        O      0.562500000000     0.312500000000     0.688950000000     0          
O        O      0.585800000000     0.289200000000     0.789200000000     0          
T        Si     0.534000000000     0.341000000000     0.689400000000     0          
T        Si     0.609050000000     0.265950000000     0.765950000000     0          
O        O      0.649250000000     0.399250000000     0.602400000000     0          
O        O      0.671550000000     0.375000000000     0.546550000000     0          
O        O      0.687500000000     0.437500000000     0.563950000000     0          
T        Si     0.659000000000     0.409000000000     0.564400000000     0          
O        O      0.600750000000     0.024250000000     0.977400000000     0          
O        O      0.625000000000     0.046550000000     0.921550000000     0          
O        O      0.539200000000     0.085800000000     0.539200000000     0          
T        Si     0.591000000000     0.034000000000     0.939400000000     0          
T        Si     0.515950000000     0.109050000000     0.515950000000     0          
O        O      0.975750000000     0.399250000000     0.522600000000     0          
O        O      0.953450000000     0.375000000000     0.578450000000     0          
O        O      0.914200000000     0.460800000000     0.960800000000     0          
T        Si     0.966000000000     0.409000000000     0.560600000000     0          
T        Si     0.890950000000     0.484050000000     0.984050000000     0          
O        O      0.600750000000     0.350750000000     0.897600000000     0          
O        O      0.625000000000     0.328450000000     0.953450000000     0          
O        O      0.562500000000     0.312500000000     0.936050000000     0          
O        O      0.539200000000     0.289200000000     0.835800000000     0          
T        Si     0.591000000000     0.341000000000     0.935600000000     0          
T        Si     0.515950000000     0.265950000000     0.859050000000     0          
O        O      0.649250000000     0.475750000000     0.772600000000     0          
O        O      0.671550000000     0.000000000000     0.828450000000     0          
O        O      0.687500000000     0.437500000000     0.811050000000     0          
T        Si     0.659000000000     0.466000000000     0.810600000000     0          
O        O      0.500000000000     0.046550000000     0.703450000000     0          
O        O      0.852400000000     0.475750000000     0.975750000000     0          
O        O      0.796550000000     0.453450000000     0.500000000000     0          
O        O      0.813950000000     0.437500000000     0.937500000000     0          
T        Si     0.814400000000     0.466000000000     0.966000000000     0          
O        O      0.524250000000     0.227400000000     0.850750000000     0          
O        O      0.546550000000     0.171550000000     0.875000000000     0          
O        O      0.562500000000     0.188950000000     0.812500000000     0          
T        Si     0.534000000000     0.189400000000     0.841000000000     0          
O        O      0.828450000000     0.421550000000     0.750000000000     0          
O        O      0.600750000000     0.147600000000     0.600750000000     0          
O        O      0.578450000000     0.203450000000     0.625000000000     0          
T        Si     0.591000000000     0.185600000000     0.591000000000     0          
O        O      0.852400000000     0.399250000000     0.899250000000     0          
O        O      0.796550000000     0.421550000000     0.875000000000     0          
T        Si     0.814400000000     0.409000000000     0.909000000000     0          
O        O      0.600750000000     0.227400000000     0.774250000000     0          
O        O      0.578450000000     0.171550000000     0.750000000000     0          
T        Si     0.591000000000     0.189400000000     0.784000000000     0          
O        O      0.828450000000     0.453450000000     0.625000000000     0          
O        O      0.546550000000     0.203450000000     0.500000000000     0          
O        O      0.500000000000     0.296550000000     0.953450000000     0          
O        O      0.725750000000     0.272600000000     0.899250000000     0          
O        O      0.750000000000     0.328450000000     0.921550000000     0          
O        O      0.687500000000     0.311050000000     0.937500000000     0          
T        Si     0.716000000000     0.310600000000     0.909000000000     0          
O        O      0.671550000000     0.125000000000     0.796550000000     0          
O        O      0.899250000000     0.102400000000     0.649250000000     0          
O        O      0.875000000000     0.046550000000     0.671550000000     0          
O        O      0.937500000000     0.063950000000     0.687500000000     0          
O        O      0.960800000000     0.164200000000     0.710800000000     0          
T        Si     0.909000000000     0.064400000000     0.659000000000     0          
T        Si     0.984050000000     0.140950000000     0.734050000000     0          
O        O      0.647600000000     0.274250000000     0.774250000000     0          
O        O      0.703450000000     0.250000000000     0.796550000000     0          
O        O      0.686050000000     0.312500000000     0.812500000000     0          
O        O      0.585800000000     0.335800000000     0.835800000000     0          
T        Si     0.685600000000     0.284000000000     0.784000000000     0          
T        Si     0.609050000000     0.359050000000     0.859050000000     0          
O        O      0.899250000000     0.022600000000     0.975750000000     0          
O        O      0.875000000000     0.078450000000     0.953450000000     0          
O        O      0.937500000000     0.061050000000     0.937500000000     0          
O        O      0.960800000000     0.460800000000     0.914200000000     0          
T        Si     0.909000000000     0.060600000000     0.966000000000     0          
T        Si     0.984050000000     0.484050000000     0.890950000000     0          
O        O      0.897600000000     0.350750000000     0.600750000000     0          
O        O      0.936050000000     0.312500000000     0.562500000000     0          
T        Si     0.935600000000     0.341000000000     0.591000000000     0          
O        O      0.524250000000     0.274250000000     0.897600000000     0          
O        O      0.546550000000     0.250000000000     0.953450000000     0          
T        Si     0.534000000000     0.284000000000     0.935600000000     0          
O        O      0.500000000000     0.421550000000     0.578450000000     0          
O        O      0.850750000000     0.350750000000     0.647600000000     0          
O        O      0.812500000000     0.312500000000     0.686050000000     0          
O        O      0.789200000000     0.289200000000     0.585800000000     0          
T        Si     0.841000000000     0.341000000000     0.685600000000     0          
T        Si     0.765950000000     0.265950000000     0.609050000000     0          
O        O      0.899250000000     0.225750000000     0.772600000000     0          
O        O      0.875000000000     0.203450000000     0.828450000000     0          
T        Si     0.909000000000     0.216000000000     0.810600000000     0          
O        O      0.546550000000     0.375000000000     0.671550000000     0          
O        O      0.899250000000     0.399250000000     0.852400000000     0          
O        O      0.875000000000     0.421550000000     0.796550000000     0          
T        Si     0.909000000000     0.409000000000     0.814400000000     0          
O        O      0.850750000000     0.274250000000     0.977400000000     0          
O        O      0.828450000000     0.250000000000     0.921550000000     0          
O        O      0.812500000000     0.312500000000     0.938950000000     0          
O        O      0.789200000000     0.335800000000     0.539200000000     0          
T        Si     0.841000000000     0.284000000000     0.939400000000     0          
T        Si     0.765950000000     0.359050000000     0.515950000000     0          
O        O      0.975750000000     0.225750000000     0.602400000000     0          
T        Si     0.966000000000     0.216000000000     0.564400000000     0          
O        O      0.703450000000     0.296550000000     0.750000000000     0          
O        O      0.975750000000     0.022600000000     0.899250000000     0          
O        O      0.953450000000     0.078450000000     0.875000000000     0          
T        Si     0.966000000000     0.060600000000     0.909000000000     0          
O        O      0.727400000000     0.350750000000     0.524250000000     0          
O        O      0.671550000000     0.328450000000     0.500000000000     0          
O        O      0.688950000000     0.312500000000     0.562500000000     0          
T        Si     0.689400000000     0.341000000000     0.534000000000     0          
O        O      0.921550000000     0.046550000000     0.625000000000     0          
O        O      0.647600000000     0.350750000000     0.850750000000     0          
O        O      0.703450000000     0.328450000000     0.875000000000     0          
T        Si     0.685600000000     0.341000000000     0.841000000000     0          
O        O      0.921550000000     0.078450000000     0.500000000000     0          
O        O      0.727400000000     0.274250000000     0.600750000000     0          
O        O      0.671550000000     0.296550000000     0.625000000000     0          
T        Si     0.689400000000     0.284000000000     0.591000000000     0          
O        O      0.975750000000     0.102400000000     0.725750000000     0          
O        O      0.953450000000     0.046550000000     0.750000000000     0          
T        Si     0.966000000000     0.064400000000     0.716000000000     0          
O        O      0.524250000000     0.397600000000     0.774250000000     0          
T        Si     0.534000000000     0.435600000000     0.784000000000     0          
O        O      0.774250000000     0.477400000000     0.850750000000     0          
O        O      0.750000000000     0.421550000000     0.828450000000     0          
O        O      0.812500000000     0.438950000000     0.812500000000     0          
O        O      0.835800000000     0.039200000000     0.789200000000     0          
T        Si     0.784000000000     0.439400000000     0.841000000000     0          
T        Si     0.859050000000     0.015950000000     0.765950000000     0          
O        O      0.772600000000     0.149250000000     0.975750000000     0          
O        O      0.811050000000     0.187500000000     0.937500000000     0          
O        O      0.710800000000     0.210800000000     0.914200000000     0          
T        Si     0.810600000000     0.159000000000     0.966000000000     0          
T        Si     0.734050000000     0.234050000000     0.890950000000     0          
O        O      0.625000000000     0.203450000000     0.578450000000     0          
O        O      0.796550000000     0.000000000000     0.953450000000     0          
O        O      0.625000000000     0.171550000000     0.796550000000     0          
O        O      0.772600000000     0.225750000000     0.899250000000     0          
O        O      0.710800000000     0.164200000000     0.960800000000     0          
T        Si     0.810600000000     0.216000000000     0.909000000000     0          
T        Si     0.734050000000     0.140950000000     0.984050000000     0          
O        O      0.602400000000     0.399250000000     0.649250000000     0          
O        O      0.563950000000     0.437500000000     0.687500000000     0          
O        O      0.664200000000     0.460800000000     0.710800000000     0          
T        Si     0.564400000000     0.409000000000     0.659000000000     0          
T        Si     0.640950000000     0.484050000000     0.734050000000     0          
O        O      0.953450000000     0.250000000000     0.546550000000     0          
O        O      0.500000000000     0.078450000000     0.921550000000     0          
O        O      0.649250000000     0.149250000000     0.852400000000     0          
O        O      0.687500000000     0.187500000000     0.813950000000     0          
T        Si     0.659000000000     0.159000000000     0.814400000000     0          
O        O      0.600750000000     0.274250000000     0.727400000000     0          
O        O      0.625000000000     0.296550000000     0.671550000000     0          
T        Si     0.591000000000     0.284000000000     0.689400000000     0          
O        O      0.953450000000     0.125000000000     0.828450000000     0          
O        O      0.600750000000     0.100750000000     0.647600000000     0          
O        O      0.625000000000     0.078450000000     0.703450000000     0          
T        Si     0.591000000000     0.091000000000     0.685600000000     0          
O        O      0.649250000000     0.225750000000     0.522600000000     0          
O        O      0.671550000000     0.250000000000     0.578450000000     0          
O        O      0.687500000000     0.187500000000     0.561050000000     0          
T        Si     0.659000000000     0.216000000000     0.560600000000     0          
O        O      0.796550000000     0.203450000000     0.750000000000     0          
O        O      0.524250000000     0.477400000000     0.600750000000     0          
O        O      0.546550000000     0.421550000000     0.625000000000     0          
T        Si     0.534000000000     0.439400000000     0.591000000000     0          
O        O      0.828450000000     0.171550000000     0.500000000000     0          
O        O      0.578450000000     0.453450000000     0.875000000000     0          
O        O      0.852400000000     0.149250000000     0.649250000000     0          
O        O      0.796550000000     0.171550000000     0.625000000000     0          
T        Si     0.814400000000     0.159000000000     0.659000000000     0          
O        O      0.578450000000     0.421550000000     0.500000000000     0          
O        O      0.828450000000     0.203450000000     0.875000000000     0          
O        O      0.546550000000     0.453450000000     0.750000000000     0          
O        O      0.725750000000     0.022600000000     0.649250000000     0          
O        O      0.750000000000     0.078450000000     0.671550000000     0          
O        O      0.687500000000     0.061050000000     0.687500000000     0          
T        Si     0.716000000000     0.060600000000     0.659000000000     0          
O        O      0.875000000000     0.296550000000     0.921550000000     0          
O        O      0.703450000000     0.000000000000     0.546550000000     0          
O        O      0.875000000000     0.328450000000     0.703450000000     0          
O        O      0.897600000000     0.100750000000     0.850750000000     0          
O        O      0.936050000000     0.062500000000     0.812500000000     0          
T        Si     0.935600000000     0.091000000000     0.841000000000     0          
O        O      0.774250000000     0.024250000000     0.897600000000     0          
O        O      0.835800000000     0.085800000000     0.835800000000     0          
T        Si     0.784000000000     0.034000000000     0.935600000000     0          
T        Si     0.859050000000     0.109050000000     0.859050000000     0          
O        O      0.725750000000     0.149250000000     0.522600000000     0          
T        Si     0.716000000000     0.159000000000     0.560600000000     0          
O        O      0.578450000000     0.125000000000     0.703450000000     0          
O        O      0.774250000000     0.100750000000     0.727400000000     0          
O        O      0.796550000000     0.125000000000     0.671550000000     0          
T        Si     0.784000000000     0.091000000000     0.689400000000     0          
O        O      0.578450000000     0.000000000000     0.921550000000     0          
O        O      0.725750000000     0.475750000000     0.602400000000     0          
O        O      0.750000000000     0.453450000000     0.546550000000     0          
O        O      0.664200000000     0.414200000000     0.664200000000     0          
T        Si     0.716000000000     0.466000000000     0.564400000000     0          
T        Si     0.640950000000     0.390950000000     0.640950000000     0          
O        O      0.897600000000     0.024250000000     0.774250000000     0          
T        Si     0.935600000000     0.034000000000     0.784000000000     0          
O        O      0.977400000000     0.100750000000     0.524250000000     0          
O        O      0.938950000000     0.062500000000     0.562500000000     0          
T        Si     0.939400000000     0.091000000000     0.534000000000     0          
O        O      0.649250000000     0.352400000000     0.649250000000     0          
O        O      0.687500000000     0.313950000000     0.687500000000     0          
T        Si     0.659000000000     0.314400000000     0.659000000000     0          
O        O      0.649250000000     0.272600000000     0.975750000000     0          
T        Si     0.659000000000     0.310600000000     0.966000000000     0          
O        O      0.977400000000     0.024250000000     0.600750000000     0          
T        Si     0.939400000000     0.034000000000     0.591000000000     0          
O        O      0.725750000000     0.352400000000     0.725750000000     0          
T        Si     0.716000000000     0.314400000000     0.716000000000     0          
O        O      0.774250000000     0.147600000000     0.774250000000     0          
O        O      0.750000000000     0.203450000000     0.796550000000     0          
O        O      0.812500000000     0.186050000000     0.812500000000     0          
T        Si     0.784000000000     0.185600000000     0.784000000000     0          
O        O      0.522600000000     0.399250000000     0.975750000000     0          
O        O      0.578450000000     0.375000000000     0.953450000000     0          
O        O      0.561050000000     0.437500000000     0.937500000000     0          
T        Si     0.560600000000     0.409000000000     0.966000000000     0          
O        O      0.850750000000     0.397600000000     0.600750000000     0          
O        O      0.812500000000     0.436050000000     0.562500000000     0          
T        Si     0.841000000000     0.435600000000     0.591000000000     0          
O        O      0.602400000000     0.225750000000     0.975750000000     0          
O        O      0.664200000000     0.164200000000     0.914200000000     0          
T        Si     0.564400000000     0.216000000000     0.966000000000     0          
T        Si     0.640950000000     0.140950000000     0.890950000000     0          
O        O      0.850750000000     0.477400000000     0.774250000000     0          
T        Si     0.841000000000     0.439400000000     0.784000000000     0          
O        O      0.522600000000     0.475750000000     0.899250000000     0          
T        Si     0.560600000000     0.466000000000     0.909000000000     0          
O        O      0.774250000000     0.350750000000     0.977400000000     0          
T        Si     0.784000000000     0.341000000000     0.939400000000     0          
O        O      0.921550000000     0.375000000000     0.796550000000     0          
O        O      0.725750000000     0.399250000000     0.772600000000     0          
O        O      0.703450000000     0.375000000000     0.828450000000     0          
T        Si     0.716000000000     0.409000000000     0.810600000000     0          
O        O      0.921550000000     0.000000000000     0.578450000000     0          
O        O      0.750000000000     0.046550000000     0.953450000000     0          
O        O      0.602400000000     0.475750000000     0.725750000000     0          
T        Si     0.564400000000     0.466000000000     0.716000000000     0          
O        O      0.850750000000     0.147600000000     0.850750000000     0          
T        Si     0.841000000000     0.185600000000     0.841000000000     0          
O        O      0.850750000000     0.227400000000     0.524250000000     0          
T        Si     0.841000000000     0.189400000000     0.534000000000     0          
O        O      0.750000000000     0.296550000000     0.703450000000     0          
O        O      0.921550000000     0.125000000000     0.546550000000     0          
O        O      0.649250000000     0.102400000000     0.899250000000     0          
O        O      0.687500000000     0.063950000000     0.937500000000     0          
T        Si     0.659000000000     0.064400000000     0.909000000000     0          
O        O      0.897600000000     0.274250000000     0.524250000000     0          
O        O      0.835800000000     0.335800000000     0.585800000000     0          
T        Si     0.935600000000     0.284000000000     0.534000000000     0          
T        Si     0.859050000000     0.359050000000     0.609050000000     0          
O        O      0.649250000000     0.022600000000     0.725750000000     0          
T        Si     0.659000000000     0.060600000000     0.716000000000     0          
O        O      0.774250000000     0.274250000000     0.647600000000     0          
T        Si     0.784000000000     0.284000000000     0.685600000000     0          
O        O      0.796550000000     0.375000000000     0.921550000000     0          
O        O      0.578450000000     0.250000000000     0.671550000000     0          
O        O      0.725750000000     0.225750000000     0.852400000000     0          
T        Si     0.716000000000     0.216000000000     0.814400000000     0          
O        O      0.977400000000     0.350750000000     0.774250000000     0          
O        O      0.938950000000     0.312500000000     0.812500000000     0          
T        Si     0.939400000000     0.341000000000     0.784000000000     0          
O        O      0.977400000000     0.274250000000     0.850750000000     0          
T        Si     0.939400000000     0.284000000000     0.841000000000     0          
O        O      0.725750000000     0.102400000000     0.975750000000     0          
T        Si     0.716000000000     0.064400000000     0.966000000000     0          
O        O      0.774250000000     0.397600000000     0.524250000000     0          
T        Si     0.784000000000     0.435600000000     0.534000000000     0          
O        O      0.522600000000     0.149250000000     0.725750000000     0          
O        O      0.561050000000     0.187500000000     0.687500000000     0          
T        Si     0.560600000000     0.159000000000     0.716000000000     0          
O        O      0.522600000000     0.225750000000     0.649250000000     0          
T        Si     0.560600000000     0.216000000000     0.659000000000     0          
O        O      0.703450000000     0.125000000000     0.578450000000     0          
O        O      0.921550000000     0.250000000000     0.828450000000     0          
O        O      0.524250000000     0.524250000000     0.147600000000     0          
O        O      0.546550000000     0.500000000000     0.203450000000     0          
O        O      0.562500000000     0.562500000000     0.186050000000     0          
O        O      0.585800000000     0.585800000000     0.085800000000     0          
T        Si     0.534000000000     0.534000000000     0.185600000000     0          
T        Si     0.609050000000     0.609050000000     0.109050000000     0          
T        Si     0.562500000000     0.562500000000     0.062500000000     0          
O        O      0.975750000000     0.649250000000     0.272600000000     0          
O        O      0.500000000000     0.671550000000     0.328450000000     0          
O        O      0.937500000000     0.687500000000     0.311050000000     0          
O        O      0.914200000000     0.710800000000     0.210800000000     0          
T        Si     0.966000000000     0.659000000000     0.310600000000     0          
T        Si     0.890950000000     0.734050000000     0.234050000000     0          
T        Si     0.937500000000     0.687500000000     0.187500000000     0          
O        O      0.850750000000     0.600750000000     0.397600000000     0          
O        O      0.828450000000     0.625000000000     0.453450000000     0          
O        O      0.812500000000     0.562500000000     0.436050000000     0          
O        O      0.789200000000     0.539200000000     0.335800000000     0          
T        Si     0.841000000000     0.591000000000     0.435600000000     0          
T        Si     0.765950000000     0.515950000000     0.359050000000     0          
T        Si     0.812500000000     0.562500000000     0.312500000000     0          
O        O      0.899250000000     0.975750000000     0.022600000000     0          
O        O      0.875000000000     0.953450000000     0.078450000000     0          
O        O      0.937500000000     0.937500000000     0.061050000000     0          
O        O      0.960800000000     0.914200000000     0.460800000000     0          
T        Si     0.909000000000     0.966000000000     0.060600000000     0          
T        Si     0.984050000000     0.890950000000     0.484050000000     0          
T        Si     0.937500000000     0.937500000000     0.437500000000     0          
O        O      0.524250000000     0.600750000000     0.477400000000     0          
O        O      0.546550000000     0.625000000000     0.421550000000     0          
O        O      0.562500000000     0.562500000000     0.438950000000     0          
O        O      0.585800000000     0.539200000000     0.039200000000     0          
T        Si     0.534000000000     0.591000000000     0.439400000000     0          
T        Si     0.609050000000     0.515950000000     0.015950000000     0          
O        O      0.899250000000     0.649250000000     0.102400000000     0          
O        O      0.875000000000     0.671550000000     0.046550000000     0          
O        O      0.937500000000     0.687500000000     0.063950000000     0          
O        O      0.960800000000     0.710800000000     0.164200000000     0          
T        Si     0.909000000000     0.659000000000     0.064400000000     0          
T        Si     0.984050000000     0.734050000000     0.140950000000     0          
O        O      0.850750000000     0.524250000000     0.227400000000     0          
O        O      0.828450000000     0.500000000000     0.171550000000     0          
O        O      0.812500000000     0.562500000000     0.188950000000     0          
O        O      0.789200000000     0.585800000000     0.289200000000     0          
T        Si     0.841000000000     0.534000000000     0.189400000000     0          
T        Si     0.765950000000     0.609050000000     0.265950000000     0          
O        O      0.975750000000     0.975750000000     0.352400000000     0          
O        O      0.500000000000     0.953450000000     0.296550000000     0          
O        O      0.937500000000     0.937500000000     0.313950000000     0          
O        O      0.914200000000     0.914200000000     0.414200000000     0          
T        Si     0.966000000000     0.966000000000     0.314400000000     0          
T        Si     0.890950000000     0.890950000000     0.390950000000     0          
O        O      0.647600000000     0.524250000000     0.024250000000     0          
O        O      0.703450000000     0.546550000000     0.000000000000     0          
O        O      0.686050000000     0.562500000000     0.062500000000     0          
T        Si     0.685600000000     0.534000000000     0.034000000000     0          
O        O      0.975750000000     0.772600000000     0.149250000000     0          
O        O      0.953450000000     0.828450000000     0.125000000000     0          
O        O      0.937500000000     0.811050000000     0.187500000000     0          
T        Si     0.966000000000     0.810600000000     0.159000000000     0          
O        O      0.727400000000     0.600750000000     0.274250000000     0          
O        O      0.671550000000     0.578450000000     0.250000000000     0          
O        O      0.688950000000     0.562500000000     0.312500000000     0          
T        Si     0.689400000000     0.591000000000     0.284000000000     0          
O        O      0.899250000000     0.852400000000     0.399250000000     0          
O        O      0.921550000000     0.796550000000     0.375000000000     0          
O        O      0.937500000000     0.813950000000     0.437500000000     0          
T        Si     0.909000000000     0.814400000000     0.409000000000     0          
O        O      0.647600000000     0.600750000000     0.100750000000     0          
O        O      0.703450000000     0.578450000000     0.125000000000     0          
T        Si     0.685600000000     0.591000000000     0.091000000000     0          
O        O      0.899250000000     0.772600000000     0.225750000000     0          
O        O      0.921550000000     0.828450000000     0.250000000000     0          
T        Si     0.909000000000     0.810600000000     0.216000000000     0          
O        O      0.727400000000     0.524250000000     0.350750000000     0          
O        O      0.671550000000     0.546550000000     0.375000000000     0          
T        Si     0.689400000000     0.534000000000     0.341000000000     0          
O        O      0.975750000000     0.852400000000     0.475750000000     0          
O        O      0.953450000000     0.796550000000     0.000000000000     0          
T        Si     0.966000000000     0.814400000000     0.466000000000     0          
O        O      0.524250000000     0.647600000000     0.024250000000     0          
O        O      0.500000000000     0.703450000000     0.046550000000     0          
O        O      0.562500000000     0.686050000000     0.062500000000     0          
T        Si     0.534000000000     0.685600000000     0.034000000000     0          
O        O      0.774250000000     0.727400000000     0.100750000000     0          
O        O      0.750000000000     0.671550000000     0.078450000000     0          
O        O      0.812500000000     0.688950000000     0.062500000000     0          
O        O      0.835800000000     0.789200000000     0.039200000000     0          
T        Si     0.784000000000     0.689400000000     0.091000000000     0          
T        Si     0.859050000000     0.765950000000     0.015950000000     0          
T        Si     0.812500000000     0.812500000000     0.062500000000     0          
O        O      0.772600000000     0.899250000000     0.225750000000     0          
O        O      0.828450000000     0.875000000000     0.203450000000     0          
O        O      0.811050000000     0.937500000000     0.187500000000     0          
O        O      0.710800000000     0.960800000000     0.164200000000     0          
T        Si     0.810600000000     0.909000000000     0.216000000000     0          
T        Si     0.734050000000     0.984050000000     0.140950000000     0          
T        Si     0.687500000000     0.937500000000     0.187500000000     0          
O        O      0.600750000000     0.897600000000     0.350750000000     0          
O        O      0.625000000000     0.953450000000     0.328450000000     0          
O        O      0.562500000000     0.936050000000     0.312500000000     0          
O        O      0.539200000000     0.835800000000     0.289200000000     0          
T        Si     0.591000000000     0.935600000000     0.341000000000     0          
T        Si     0.515950000000     0.859050000000     0.265950000000     0          
T        Si     0.562500000000     0.812500000000     0.312500000000     0          
O        O      0.852400000000     0.725750000000     0.225750000000     0          
O        O      0.796550000000     0.750000000000     0.203450000000     0          
O        O      0.813950000000     0.687500000000     0.187500000000     0          
O        O      0.914200000000     0.664200000000     0.164200000000     0          
T        Si     0.814400000000     0.716000000000     0.216000000000     0          
T        Si     0.890950000000     0.640950000000     0.140950000000     0          
O        O      0.600750000000     0.977400000000     0.024250000000     0          
O        O      0.625000000000     0.921550000000     0.046550000000     0          
O        O      0.562500000000     0.938950000000     0.062500000000     0          
O        O      0.539200000000     0.539200000000     0.085800000000     0          
T        Si     0.591000000000     0.939400000000     0.034000000000     0          
T        Si     0.515950000000     0.515950000000     0.109050000000     0          
O        O      0.772600000000     0.975750000000     0.149250000000     0          
O        O      0.710800000000     0.914200000000     0.210800000000     0          
T        Si     0.810600000000     0.966000000000     0.159000000000     0          
T        Si     0.734050000000     0.890950000000     0.234050000000     0          
O        O      0.602400000000     0.649250000000     0.399250000000     0          
O        O      0.563950000000     0.687500000000     0.437500000000     0          
O        O      0.664200000000     0.710800000000     0.460800000000     0          
T        Si     0.564400000000     0.659000000000     0.409000000000     0          
T        Si     0.640950000000     0.734050000000     0.484050000000     0          
T        Si     0.687500000000     0.687500000000     0.437500000000     0          
O        O      0.953450000000     0.500000000000     0.296550000000     0          
O        O      0.524250000000     0.850750000000     0.227400000000     0          
O        O      0.500000000000     0.828450000000     0.171550000000     0          
O        O      0.562500000000     0.812500000000     0.188950000000     0          
O        O      0.585800000000     0.789200000000     0.289200000000     0          
T        Si     0.534000000000     0.841000000000     0.189400000000     0          
T        Si     0.609050000000     0.765950000000     0.265950000000     0          
O        O      0.649250000000     0.899250000000     0.102400000000     0          
O        O      0.671550000000     0.875000000000     0.046550000000     0          
O        O      0.687500000000     0.937500000000     0.063950000000     0          
T        Si     0.659000000000     0.909000000000     0.064400000000     0          
O        O      0.600750000000     0.524250000000     0.477400000000     0          
O        O      0.625000000000     0.546550000000     0.421550000000     0          
O        O      0.539200000000     0.585800000000     0.039200000000     0          
T        Si     0.591000000000     0.534000000000     0.439400000000     0          
T        Si     0.515950000000     0.609050000000     0.015950000000     0          
O        O      0.975750000000     0.899250000000     0.022600000000     0          
O        O      0.953450000000     0.875000000000     0.078450000000     0          
O        O      0.914200000000     0.960800000000     0.460800000000     0          
T        Si     0.966000000000     0.909000000000     0.060600000000     0          
T        Si     0.890950000000     0.984050000000     0.484050000000     0          
O        O      0.600750000000     0.850750000000     0.397600000000     0          
O        O      0.625000000000     0.828450000000     0.453450000000     0          
O        O      0.562500000000     0.812500000000     0.436050000000     0          
O        O      0.539200000000     0.789200000000     0.335800000000     0          
T        Si     0.591000000000     0.841000000000     0.435600000000     0          
T        Si     0.515950000000     0.765950000000     0.359050000000     0          
O        O      0.649250000000     0.975750000000     0.272600000000     0          
O        O      0.671550000000     0.500000000000     0.328450000000     0          
O        O      0.687500000000     0.937500000000     0.311050000000     0          
T        Si     0.659000000000     0.966000000000     0.310600000000     0          
O        O      0.500000000000     0.546550000000     0.203450000000     0          
O        O      0.852400000000     0.975750000000     0.475750000000     0          
O        O      0.796550000000     0.953450000000     0.000000000000     0          
O        O      0.813950000000     0.937500000000     0.437500000000     0          
T        Si     0.814400000000     0.966000000000     0.466000000000     0          
O        O      0.524250000000     0.727400000000     0.350750000000     0          
O        O      0.546550000000     0.671550000000     0.375000000000     0          
O        O      0.562500000000     0.688950000000     0.312500000000     0          
T        Si     0.534000000000     0.689400000000     0.341000000000     0          
O        O      0.828450000000     0.921550000000     0.250000000000     0          
O        O      0.600750000000     0.647600000000     0.100750000000     0          
O        O      0.578450000000     0.703450000000     0.125000000000     0          
T        Si     0.591000000000     0.685600000000     0.091000000000     0          
O        O      0.852400000000     0.899250000000     0.399250000000     0          
O        O      0.796550000000     0.921550000000     0.375000000000     0          
T        Si     0.814400000000     0.909000000000     0.409000000000     0          
O        O      0.600750000000     0.727400000000     0.274250000000     0          
O        O      0.578450000000     0.671550000000     0.250000000000     0          
T        Si     0.591000000000     0.689400000000     0.284000000000     0          
O        O      0.828450000000     0.953450000000     0.125000000000     0          
O        O      0.546550000000     0.703450000000     0.000000000000     0          
O        O      0.500000000000     0.796550000000     0.453450000000     0          
O        O      0.725750000000     0.772600000000     0.399250000000     0          
O        O      0.750000000000     0.828450000000     0.421550000000     0          
O        O      0.687500000000     0.811050000000     0.437500000000     0          
T        Si     0.716000000000     0.810600000000     0.409000000000     0          
O        O      0.671550000000     0.625000000000     0.296550000000     0          
O        O      0.899250000000     0.602400000000     0.149250000000     0          
O        O      0.875000000000     0.546550000000     0.171550000000     0          
O        O      0.937500000000     0.563950000000     0.187500000000     0          
O        O      0.960800000000     0.664200000000     0.210800000000     0          
T        Si     0.909000000000     0.564400000000     0.159000000000     0          
T        Si     0.984050000000     0.640950000000     0.234050000000     0          
O        O      0.647600000000     0.774250000000     0.274250000000     0          
O        O      0.703450000000     0.750000000000     0.296550000000     0          
O        O      0.686050000000     0.812500000000     0.312500000000     0          
O        O      0.585800000000     0.835800000000     0.335800000000     0          
T        Si     0.685600000000     0.784000000000     0.284000000000     0          
T        Si     0.609050000000     0.859050000000     0.359050000000     0          
O        O      0.899250000000     0.522600000000     0.475750000000     0          
O        O      0.875000000000     0.578450000000     0.453450000000     0          
O        O      0.937500000000     0.561050000000     0.437500000000     0          
O        O      0.960800000000     0.960800000000     0.414200000000     0          
T        Si     0.909000000000     0.560600000000     0.466000000000     0          
T        Si     0.984050000000     0.984050000000     0.390950000000     0          
O        O      0.897600000000     0.850750000000     0.100750000000     0          
O        O      0.936050000000     0.812500000000     0.062500000000     0          
T        Si     0.935600000000     0.841000000000     0.091000000000     0          
O        O      0.524250000000     0.774250000000     0.397600000000     0          
O        O      0.546550000000     0.750000000000     0.453450000000     0          
T        Si     0.534000000000     0.784000000000     0.435600000000     0          
O        O      0.500000000000     0.921550000000     0.078450000000     0          
O        O      0.850750000000     0.850750000000     0.147600000000     0          
O        O      0.812500000000     0.812500000000     0.186050000000     0          
O        O      0.789200000000     0.789200000000     0.085800000000     0          
T        Si     0.841000000000     0.841000000000     0.185600000000     0          
T        Si     0.765950000000     0.765950000000     0.109050000000     0          
O        O      0.899250000000     0.725750000000     0.272600000000     0          
O        O      0.875000000000     0.703450000000     0.328450000000     0          
T        Si     0.909000000000     0.716000000000     0.310600000000     0          
O        O      0.546550000000     0.875000000000     0.171550000000     0          
O        O      0.899250000000     0.899250000000     0.352400000000     0          
O        O      0.875000000000     0.921550000000     0.296550000000     0          
T        Si     0.909000000000     0.909000000000     0.314400000000     0          
O        O      0.850750000000     0.774250000000     0.477400000000     0          
O        O      0.828450000000     0.750000000000     0.421550000000     0          
O        O      0.812500000000     0.812500000000     0.438950000000     0          
O        O      0.789200000000     0.835800000000     0.039200000000     0          
T        Si     0.841000000000     0.784000000000     0.439400000000     0          
T        Si     0.765950000000     0.859050000000     0.015950000000     0          
O        O      0.975750000000     0.725750000000     0.102400000000     0          
T        Si     0.966000000000     0.716000000000     0.064400000000     0          
O        O      0.703450000000     0.796550000000     0.250000000000     0          
O        O      0.975750000000     0.522600000000     0.399250000000     0          
O        O      0.953450000000     0.578450000000     0.375000000000     0          
T        Si     0.966000000000     0.560600000000     0.409000000000     0          
O        O      0.727400000000     0.850750000000     0.024250000000     0          
O        O      0.671550000000     0.828450000000     0.000000000000     0          
O        O      0.688950000000     0.812500000000     0.062500000000     0          
T        Si     0.689400000000     0.841000000000     0.034000000000     0          
O        O      0.921550000000     0.546550000000     0.125000000000     0          
O        O      0.647600000000     0.850750000000     0.350750000000     0          
O        O      0.703450000000     0.828450000000     0.375000000000     0          
T        Si     0.685600000000     0.841000000000     0.341000000000     0          
O        O      0.921550000000     0.578450000000     0.000000000000     0          
O        O      0.727400000000     0.774250000000     0.100750000000     0          
O        O      0.671550000000     0.796550000000     0.125000000000     0          
T        Si     0.689400000000     0.784000000000     0.091000000000     0          
O        O      0.975750000000     0.602400000000     0.225750000000     0          
O        O      0.953450000000     0.546550000000     0.250000000000     0          
T        Si     0.966000000000     0.564400000000     0.216000000000     0          
O        O      0.524250000000     0.897600000000     0.274250000000     0          
T        Si     0.534000000000     0.935600000000     0.284000000000     0          
O        O      0.774250000000     0.977400000000     0.350750000000     0          
O        O      0.750000000000     0.921550000000     0.328450000000     0          
O        O      0.812500000000     0.938950000000     0.312500000000     0          
O        O      0.835800000000     0.539200000000     0.289200000000     0          
T        Si     0.784000000000     0.939400000000     0.341000000000     0          
T        Si     0.859050000000     0.515950000000     0.265950000000     0          
O        O      0.772600000000     0.649250000000     0.475750000000     0          
O        O      0.811050000000     0.687500000000     0.437500000000     0          
O        O      0.710800000000     0.710800000000     0.414200000000     0          
T        Si     0.810600000000     0.659000000000     0.466000000000     0          
T        Si     0.734050000000     0.734050000000     0.390950000000     0          
O        O      0.625000000000     0.703450000000     0.078450000000     0          
O        O      0.796550000000     0.500000000000     0.453450000000     0          
O        O      0.625000000000     0.671550000000     0.296550000000     0          
O        O      0.772600000000     0.725750000000     0.399250000000     0          
O        O      0.710800000000     0.664200000000     0.460800000000     0          
T        Si     0.810600000000     0.716000000000     0.409000000000     0          
T        Si     0.734050000000     0.640950000000     0.484050000000     0          
O        O      0.602400000000     0.899250000000     0.149250000000     0          
O        O      0.563950000000     0.937500000000     0.187500000000     0          
O        O      0.664200000000     0.960800000000     0.210800000000     0          
T        Si     0.564400000000     0.909000000000     0.159000000000     0          
T        Si     0.640950000000     0.984050000000     0.234050000000     0          
O        O      0.953450000000     0.750000000000     0.046550000000     0          
O        O      0.500000000000     0.578450000000     0.421550000000     0          
O        O      0.649250000000     0.649250000000     0.352400000000     0          
O        O      0.687500000000     0.687500000000     0.313950000000     0          
T        Si     0.659000000000     0.659000000000     0.314400000000     0          
O        O      0.600750000000     0.774250000000     0.227400000000     0          
O        O      0.625000000000     0.796550000000     0.171550000000     0          
T        Si     0.591000000000     0.784000000000     0.189400000000     0          
O        O      0.953450000000     0.625000000000     0.328450000000     0          
O        O      0.600750000000     0.600750000000     0.147600000000     0          
O        O      0.625000000000     0.578450000000     0.203450000000     0          
T        Si     0.591000000000     0.591000000000     0.185600000000     0          
O        O      0.649250000000     0.725750000000     0.022600000000     0          
O        O      0.671550000000     0.750000000000     0.078450000000     0          
O        O      0.687500000000     0.687500000000     0.061050000000     0          
T        Si     0.659000000000     0.716000000000     0.060600000000     0          
O        O      0.796550000000     0.703450000000     0.250000000000     0          
O        O      0.524250000000     0.977400000000     0.100750000000     0          
O        O      0.546550000000     0.921550000000     0.125000000000     0          
T        Si     0.534000000000     0.939400000000     0.091000000000     0          
O        O      0.828450000000     0.671550000000     0.000000000000     0          
O        O      0.578450000000     0.953450000000     0.375000000000     0          
O        O      0.852400000000     0.649250000000     0.149250000000     0          
O        O      0.796550000000     0.671550000000     0.125000000000     0          
T        Si     0.814400000000     0.659000000000     0.159000000000     0          
O        O      0.578450000000     0.921550000000     0.000000000000     0          
O        O      0.828450000000     0.703450000000     0.375000000000     0          
O        O      0.546550000000     0.953450000000     0.250000000000     0          
O        O      0.725750000000     0.522600000000     0.149250000000     0          
O        O      0.750000000000     0.578450000000     0.171550000000     0          
O        O      0.687500000000     0.561050000000     0.187500000000     0          
T        Si     0.716000000000     0.560600000000     0.159000000000     0          
O        O      0.875000000000     0.796550000000     0.421550000000     0          
O        O      0.703450000000     0.500000000000     0.046550000000     0          
O        O      0.875000000000     0.828450000000     0.203450000000     0          
O        O      0.897600000000     0.600750000000     0.350750000000     0          
O        O      0.936050000000     0.562500000000     0.312500000000     0          
T        Si     0.935600000000     0.591000000000     0.341000000000     0          
O        O      0.774250000000     0.524250000000     0.397600000000     0          
O        O      0.835800000000     0.585800000000     0.335800000000     0          
T        Si     0.784000000000     0.534000000000     0.435600000000     0          
T        Si     0.859050000000     0.609050000000     0.359050000000     0          
O        O      0.725750000000     0.649250000000     0.022600000000     0          
T        Si     0.716000000000     0.659000000000     0.060600000000     0          
O        O      0.578450000000     0.625000000000     0.203450000000     0          
O        O      0.774250000000     0.600750000000     0.227400000000     0          
O        O      0.796550000000     0.625000000000     0.171550000000     0          
T        Si     0.784000000000     0.591000000000     0.189400000000     0          
O        O      0.578450000000     0.500000000000     0.421550000000     0          
O        O      0.725750000000     0.975750000000     0.102400000000     0          
O        O      0.750000000000     0.953450000000     0.046550000000     0          
O        O      0.664200000000     0.914200000000     0.164200000000     0          
T        Si     0.716000000000     0.966000000000     0.064400000000     0          
T        Si     0.640950000000     0.890950000000     0.140950000000     0          
O        O      0.897600000000     0.524250000000     0.274250000000     0          
T        Si     0.935600000000     0.534000000000     0.284000000000     0          
O        O      0.977400000000     0.600750000000     0.024250000000     0          
O        O      0.938950000000     0.562500000000     0.062500000000     0          
T        Si     0.939400000000     0.591000000000     0.034000000000     0          
O        O      0.649250000000     0.852400000000     0.149250000000     0          
O        O      0.687500000000     0.813950000000     0.187500000000     0          
T        Si     0.659000000000     0.814400000000     0.159000000000     0          
O        O      0.649250000000     0.772600000000     0.475750000000     0          
T        Si     0.659000000000     0.810600000000     0.466000000000     0          
O        O      0.977400000000     0.524250000000     0.100750000000     0          
T        Si     0.939400000000     0.534000000000     0.091000000000     0          
O        O      0.725750000000     0.852400000000     0.225750000000     0          
T        Si     0.716000000000     0.814400000000     0.216000000000     0          
O        O      0.774250000000     0.647600000000     0.274250000000     0          
O        O      0.750000000000     0.703450000000     0.296550000000     0          
O        O      0.812500000000     0.686050000000     0.312500000000     0          
T        Si     0.784000000000     0.685600000000     0.284000000000     0          
O        O      0.522600000000     0.899250000000     0.475750000000     0          
O        O      0.578450000000     0.875000000000     0.453450000000     0          
O        O      0.561050000000     0.937500000000     0.437500000000     0          
T        Si     0.560600000000     0.909000000000     0.466000000000     0          
O        O      0.850750000000     0.897600000000     0.100750000000     0          
O        O      0.812500000000     0.936050000000     0.062500000000     0          
T        Si     0.841000000000     0.935600000000     0.091000000000     0          
O        O      0.602400000000     0.725750000000     0.475750000000     0          
O        O      0.664200000000     0.664200000000     0.414200000000     0          
T        Si     0.564400000000     0.716000000000     0.466000000000     0          
T        Si     0.640950000000     0.640950000000     0.390950000000     0          
O        O      0.850750000000     0.977400000000     0.274250000000     0          
T        Si     0.841000000000     0.939400000000     0.284000000000     0          
O        O      0.522600000000     0.975750000000     0.399250000000     0          
T        Si     0.560600000000     0.966000000000     0.409000000000     0          
O        O      0.774250000000     0.850750000000     0.477400000000     0          
T        Si     0.784000000000     0.841000000000     0.439400000000     0          
O        O      0.921550000000     0.875000000000     0.296550000000     0          
O        O      0.725750000000     0.899250000000     0.272600000000     0          
O        O      0.703450000000     0.875000000000     0.328450000000     0          
T        Si     0.716000000000     0.909000000000     0.310600000000     0          
O        O      0.921550000000     0.500000000000     0.078450000000     0          
O        O      0.750000000000     0.546550000000     0.453450000000     0          
O        O      0.602400000000     0.975750000000     0.225750000000     0          
T        Si     0.564400000000     0.966000000000     0.216000000000     0          
O        O      0.850750000000     0.647600000000     0.350750000000     0          
T        Si     0.841000000000     0.685600000000     0.341000000000     0          
O        O      0.850750000000     0.727400000000     0.024250000000     0          
T        Si     0.841000000000     0.689400000000     0.034000000000     0          
O        O      0.750000000000     0.796550000000     0.203450000000     0          
O        O      0.921550000000     0.625000000000     0.046550000000     0          
O        O      0.649250000000     0.602400000000     0.399250000000     0          
O        O      0.687500000000     0.563950000000     0.437500000000     0          
T        Si     0.659000000000     0.564400000000     0.409000000000     0          
O        O      0.897600000000     0.774250000000     0.024250000000     0          
O        O      0.835800000000     0.835800000000     0.085800000000     0          
T        Si     0.935600000000     0.784000000000     0.034000000000     0          
T        Si     0.859050000000     0.859050000000     0.109050000000     0          
O        O      0.649250000000     0.522600000000     0.225750000000     0          
T        Si     0.659000000000     0.560600000000     0.216000000000     0          
O        O      0.774250000000     0.774250000000     0.147600000000     0          
T        Si     0.784000000000     0.784000000000     0.185600000000     0          
O        O      0.796550000000     0.875000000000     0.421550000000     0          
O        O      0.578450000000     0.750000000000     0.171550000000     0          
O        O      0.725750000000     0.725750000000     0.352400000000     0          
T        Si     0.716000000000     0.716000000000     0.314400000000     0          
O        O      0.977400000000     0.850750000000     0.274250000000     0          
O        O      0.938950000000     0.812500000000     0.312500000000     0          
T        Si     0.939400000000     0.841000000000     0.284000000000     0          
O        O      0.977400000000     0.774250000000     0.350750000000     0          
T        Si     0.939400000000     0.784000000000     0.341000000000     0          
O        O      0.725750000000     0.602400000000     0.475750000000     0          
T        Si     0.716000000000     0.564400000000     0.466000000000     0          
O        O      0.774250000000     0.897600000000     0.024250000000     0          
T        Si     0.784000000000     0.935600000000     0.034000000000     0          
O        O      0.522600000000     0.649250000000     0.225750000000     0          
O        O      0.561050000000     0.687500000000     0.187500000000     0          
T        Si     0.560600000000     0.659000000000     0.216000000000     0          
O        O      0.522600000000     0.725750000000     0.149250000000     0          
T        Si     0.560600000000     0.716000000000     0.159000000000     0          
O        O      0.703450000000     0.625000000000     0.078450000000     0          
O        O      0.921550000000     0.750000000000     0.328450000000     0          
O        O      0.524250000000     0.524250000000     0.647600000000     0          
O        O      0.546550000000     0.500000000000     0.703450000000     0          
O        O      0.562500000000     0.562500000000     0.686050000000     0          
O        O      0.585800000000     0.585800000000     0.585800000000     0          
T        Si     0.534000000000     0.534000000000     0.685600000000     0          
T        Si     0.609050000000     0.609050000000     0.609050000000     0          
T        Si     0.562500000000     0.562500000000     0.562500000000     0          
O        O      0.975750000000     0.649250000000     0.772600000000     0          
O        O      0.500000000000     0.671550000000     0.828450000000     0          
O        O      0.937500000000     0.687500000000     0.811050000000     0          
O        O      0.914200000000     0.710800000000     0.710800000000     0          
T        Si     0.966000000000     0.659000000000     0.810600000000     0          
T        Si     0.890950000000     0.734050000000     0.734050000000     0          
T        Si     0.937500000000     0.687500000000     0.687500000000     0          
O        O      0.850750000000     0.600750000000     0.897600000000     0          
O        O      0.828450000000     0.625000000000     0.953450000000     0          
O        O      0.812500000000     0.562500000000     0.936050000000     0          
O        O      0.789200000000     0.539200000000     0.835800000000     0          
T        Si     0.841000000000     0.591000000000     0.935600000000     0          
T        Si     0.765950000000     0.515950000000     0.859050000000     0          
T        Si     0.812500000000     0.562500000000     0.812500000000     0          
O        O      0.899250000000     0.975750000000     0.522600000000     0          
O        O      0.875000000000     0.953450000000     0.578450000000     0          
O        O      0.937500000000     0.937500000000     0.561050000000     0          
O        O      0.960800000000     0.914200000000     0.960800000000     0          
T        Si     0.909000000000     0.966000000000     0.560600000000     0          
T        Si     0.984050000000     0.890950000000     0.984050000000     0          
T        Si     0.937500000000     0.937500000000     0.937500000000     0          
O        O      0.524250000000     0.600750000000     0.977400000000     0          
O        O      0.546550000000     0.625000000000     0.921550000000     0          
O        O      0.562500000000     0.562500000000     0.938950000000     0          
O        O      0.585800000000     0.539200000000     0.539200000000     0          
T        Si     0.534000000000     0.591000000000     0.939400000000     0          
T        Si     0.609050000000     0.515950000000     0.515950000000     0          
O        O      0.899250000000     0.649250000000     0.602400000000     0          
O        O      0.875000000000     0.671550000000     0.546550000000     0          
O        O      0.937500000000     0.687500000000     0.563950000000     0          
O        O      0.960800000000     0.710800000000     0.664200000000     0          
T        Si     0.909000000000     0.659000000000     0.564400000000     0          
T        Si     0.984050000000     0.734050000000     0.640950000000     0          
O        O      0.850750000000     0.524250000000     0.727400000000     0          
O        O      0.828450000000     0.500000000000     0.671550000000     0          
O        O      0.812500000000     0.562500000000     0.688950000000     0          
O        O      0.789200000000     0.585800000000     0.789200000000     0          
T        Si     0.841000000000     0.534000000000     0.689400000000     0          
T        Si     0.765950000000     0.609050000000     0.765950000000     0          
O        O      0.975750000000     0.975750000000     0.852400000000     0          
O        O      0.500000000000     0.953450000000     0.796550000000     0          
O        O      0.937500000000     0.937500000000     0.813950000000     0          
O        O      0.914200000000     0.914200000000     0.914200000000     0          
T        Si     0.966000000000     0.966000000000     0.814400000000     0          
T        Si     0.890950000000     0.890950000000     0.890950000000     0          
O        O      0.647600000000     0.524250000000     0.524250000000     0          
O        O      0.703450000000     0.546550000000     0.500000000000     0          
O        O      0.686050000000     0.562500000000     0.562500000000     0          
T        Si     0.685600000000     0.534000000000     0.534000000000     0          
O        O      0.975750000000     0.772600000000     0.649250000000     0          
O        O      0.953450000000     0.828450000000     0.625000000000     0          
O        O      0.937500000000     0.811050000000     0.687500000000     0          
T        Si     0.966000000000     0.810600000000     0.659000000000     0          
O        O      0.727400000000     0.600750000000     0.774250000000     0          
O        O      0.671550000000     0.578450000000     0.750000000000     0          
O        O      0.688950000000     0.562500000000     0.812500000000     0          
T        Si     0.689400000000     0.591000000000     0.784000000000     0          
O        O      0.899250000000     0.852400000000     0.899250000000     0          
O        O      0.921550000000     0.796550000000     0.875000000000     0          
O        O      0.937500000000     0.813950000000     0.937500000000     0          
T        Si     0.909000000000     0.814400000000     0.909000000000     0          
O        O      0.647600000000     0.600750000000     0.600750000000     0          
O        O      0.703450000000     0.578450000000     0.625000000000     0          
T        Si     0.685600000000     0.591000000000     0.591000000000     0          
O        O      0.899250000000     0.772600000000     0.725750000000     0          
O        O      0.921550000000     0.828450000000     0.750000000000     0          
T        Si     0.909000000000     0.810600000000     0.716000000000     0          
O        O      0.727400000000     0.524250000000     0.850750000000     0          
O        O      0.671550000000     0.546550000000     0.875000000000     0          
T        Si     0.689400000000     0.534000000000     0.841000000000     0          
O        O      0.975750000000     0.852400000000     0.975750000000     0          
O        O      0.953450000000     0.796550000000     0.500000000000     0          
T        Si     0.966000000000     0.814400000000     0.966000000000     0          
O        O      0.524250000000     0.647600000000     0.524250000000     0          
O        O      0.500000000000     0.703450000000     0.546550000000     0          
O        O      0.562500000000     0.686050000000     0.562500000000     0          
T        Si     0.534000000000     0.685600000000     0.534000000000     0          
O        O      0.774250000000     0.727400000000     0.600750000000     0          
O        O      0.750000000000     0.671550000000     0.578450000000     0          
O        O      0.812500000000     0.688950000000     0.562500000000     0          
O        O      0.835800000000     0.789200000000     0.539200000000     0          
T        Si     0.784000000000     0.689400000000     0.591000000000     0          
T        Si     0.859050000000     0.765950000000     0.515950000000     0          
T        Si     0.812500000000     0.812500000000     0.562500000000     0          
O        O      0.772600000000     0.899250000000     0.725750000000     0          
O        O      0.828450000000     0.875000000000     0.703450000000     0          
O        O      0.811050000000     0.937500000000     0.687500000000     0          
O        O      0.710800000000     0.960800000000     0.664200000000     0          
T        Si     0.810600000000     0.909000000000     0.716000000000     0          
T        Si     0.734050000000     0.984050000000     0.640950000000     0          
T        Si     0.687500000000     0.937500000000     0.687500000000     0          
O        O      0.600750000000     0.897600000000     0.850750000000     0          
O        O      0.625000000000     0.953450000000     0.828450000000     0          
O        O      0.562500000000     0.936050000000     0.812500000000     0          
O        O      0.539200000000     0.835800000000     0.789200000000     0          
T        Si     0.591000000000     0.935600000000     0.841000000000     0          
T        Si     0.515950000000     0.859050000000     0.765950000000     0          
T        Si     0.562500000000     0.812500000000     0.812500000000     0          
O        O      0.852400000000     0.725750000000     0.725750000000     0          
O        O      0.796550000000     0.750000000000     0.703450000000     0          
O        O      0.813950000000     0.687500000000     0.687500000000     0          
O        O      0.914200000000     0.664200000000     0.664200000000     0          
T        Si     0.814400000000     0.716000000000     0.716000000000     0          
T        Si     0.890950000000     0.640950000000     0.640950000000     0          
O        O      0.600750000000     0.977400000000     0.524250000000     0          
O        O      0.625000000000     0.921550000000     0.546550000000     0          
O        O      0.562500000000     0.938950000000     0.562500000000     0          
O        O      0.539200000000     0.539200000000     0.585800000000     0          
T        Si     0.591000000000     0.939400000000     0.534000000000     0          
T        Si     0.515950000000     0.515950000000     0.609050000000     0          
O        O      0.772600000000     0.975750000000     0.649250000000     0          
O        O      0.710800000000     0.914200000000     0.710800000000     0          
T        Si     0.810600000000     0.966000000000     0.659000000000     0          
T        Si     0.734050000000     0.890950000000     0.734050000000     0          
O        O      0.602400000000     0.649250000000     0.899250000000     0          
O        O      0.563950000000     0.687500000000     0.937500000000     0          
O        O      0.664200000000     0.710800000000     0.960800000000     0          
T        Si     0.564400000000     0.659000000000     0.909000000000     0          
T        Si     0.640950000000     0.734050000000     0.984050000000     0          
T        Si     0.687500000000     0.687500000000     0.937500000000     0          
O        O      0.953450000000     0.500000000000     0.796550000000     0          
O        O      0.524250000000     0.850750000000     0.727400000000     0          
O        O      0.500000000000     0.828450000000     0.671550000000     0          
O        O      0.562500000000     0.812500000000     0.688950000000     0          
O        O      0.585800000000     0.789200000000     0.789200000000     0          
T        Si     0.534000000000     0.841000000000     0.689400000000     0          
T        Si     0.609050000000     0.765950000000     0.765950000000     0          
O        O      0.649250000000     0.899250000000     0.602400000000     0          
O        O      0.671550000000     0.875000000000     0.546550000000     0          
O        O      0.687500000000     0.937500000000     0.563950000000     0          
T        Si     0.659000000000     0.909000000000     0.564400000000     0          
O        O      0.600750000000     0.524250000000     0.977400000000     0          
O        O      0.625000000000     0.546550000000     0.921550000000     0          
O        O      0.539200000000     0.585800000000     0.539200000000     0          
T        Si     0.591000000000     0.534000000000     0.939400000000     0          
T        Si     0.515950000000     0.609050000000     0.515950000000     0          
O        O      0.975750000000     0.899250000000     0.522600000000     0          
O        O      0.953450000000     0.875000000000     0.578450000000     0          
O        O      0.914200000000     0.960800000000     0.960800000000     0          
T        Si     0.966000000000     0.909000000000     0.560600000000     0          
T        Si     0.890950000000     0.984050000000     0.984050000000     0          
O        O      0.600750000000     0.850750000000     0.897600000000     0          
O        O      0.625000000000     0.828450000000     0.953450000000     0          
O        O      0.562500000000     0.812500000000     0.936050000000     0          
O        O      0.539200000000     0.789200000000     0.835800000000     0          
T        Si     0.591000000000     0.841000000000     0.935600000000     0          
T        Si     0.515950000000     0.765950000000     0.859050000000     0          
O        O      0.649250000000     0.975750000000     0.772600000000     0          
O        O      0.671550000000     0.500000000000     0.828450000000     0          
O        O      0.687500000000     0.937500000000     0.811050000000     0          
T        Si     0.659000000000     0.966000000000     0.810600000000     0          
O        O      0.500000000000     0.546550000000     0.703450000000     0          
O        O      0.852400000000     0.975750000000     0.975750000000     0          
O        O      0.796550000000     0.953450000000     0.500000000000     0          
O        O      0.813950000000     0.937500000000     0.937500000000     0          
T        Si     0.814400000000     0.966000000000     0.966000000000     0          
O        O      0.524250000000     0.727400000000     0.850750000000     0          
O        O      0.546550000000     0.671550000000     0.875000000000     0          
O        O      0.562500000000     0.688950000000     0.812500000000     0          
T        Si     0.534000000000     0.689400000000     0.841000000000     0          
O        O      0.828450000000     0.921550000000     0.750000000000     0          
O        O      0.600750000000     0.647600000000     0.600750000000     0          
O        O      0.578450000000     0.703450000000     0.625000000000     0          
T        Si     0.591000000000     0.685600000000     0.591000000000     0          
O        O      0.852400000000     0.899250000000     0.899250000000     0          
O        O      0.796550000000     0.921550000000     0.875000000000     0          
T        Si     0.814400000000     0.909000000000     0.909000000000     0          
O        O      0.600750000000     0.727400000000     0.774250000000     0          
O        O      0.578450000000     0.671550000000     0.750000000000     0          
T        Si     0.591000000000     0.689400000000     0.784000000000     0          
O        O      0.828450000000     0.953450000000     0.625000000000     0          
O        O      0.546550000000     0.703450000000     0.500000000000     0          
O        O      0.500000000000     0.796550000000     0.953450000000     0          
O        O      0.725750000000     0.772600000000     0.899250000000     0          
O        O      0.750000000000     0.828450000000     0.921550000000     0          
O        O      0.687500000000     0.811050000000     0.937500000000     0          
T        Si     0.716000000000     0.810600000000     0.909000000000     0          
O        O      0.671550000000     0.625000000000     0.796550000000     0          
O        O      0.899250000000     0.602400000000     0.649250000000     0          
O        O      0.875000000000     0.546550000000     0.671550000000     0          
O        O      0.937500000000     0.563950000000     0.687500000000     0          
O        O      0.960800000000     0.664200000000     0.710800000000     0          
T        Si     0.909000000000     0.564400000000     0.659000000000     0          
T        Si     0.984050000000     0.640950000000     0.734050000000     0          
O        O      0.647600000000     0.774250000000     0.774250000000     0          
O        O      0.703450000000     0.750000000000     0.796550000000     0          
O        O      0.686050000000     0.812500000000     0.812500000000     0          
O        O      0.585800000000     0.835800000000     0.835800000000     0          
T        Si     0.685600000000     0.784000000000     0.784000000000     0          
T        Si     0.609050000000     0.859050000000     0.859050000000     0          
O        O      0.899250000000     0.522600000000     0.975750000000     0          
O        O      0.875000000000     0.578450000000     0.953450000000     0          
O        O      0.937500000000     0.561050000000     0.937500000000     0          
O        O      0.960800000000     0.960800000000     0.914200000000     0          
T        Si     0.909000000000     0.560600000000     0.966000000000     0          
T        Si     0.984050000000     0.984050000000     0.890950000000     0          
O        O      0.897600000000     0.850750000000     0.600750000000     0          
O        O      0.936050000000     0.812500000000     0.562500000000     0          
T        Si     0.935600000000     0.841000000000     0.591000000000     0          
O        O      0.524250000000     0.774250000000     0.897600000000     0          
O        O      0.546550000000     0.750000000000     0.953450000000     0          
T        Si     0.534000000000     0.784000000000     0.935600000000     0          
O        O      0.500000000000     0.921550000000     0.578450000000     0          
O        O      0.850750000000     0.850750000000     0.647600000000     0          
O        O      0.812500000000     0.812500000000     0.686050000000     0          
O        O      0.789200000000     0.789200000000     0.585800000000     0          
T        Si     0.841000000000     0.841000000000     0.685600000000     0          
T        Si     0.765950000000     0.765950000000     0.609050000000     0          
O        O      0.899250000000     0.725750000000     0.772600000000     0          
O        O      0.875000000000     0.703450000000     0.828450000000     0          
T        Si     0.909000000000     0.716000000000     0.810600000000     0          
O        O      0.546550000000     0.875000000000     0.671550000000     0          
O        O      0.899250000000     0.899250000000     0.852400000000     0          
O        O      0.875000000000     0.921550000000     0.796550000000     0          
T        Si     0.909000000000     0.909000000000     0.814400000000     0          
O        O      0.850750000000     0.774250000000     0.977400000000     0          
O        O      0.828450000000     0.750000000000     0.921550000000     0          
O        O      0.812500000000     0.812500000000     0.938950000000     0          
O        O      0.789200000000     0.835800000000     0.539200000000     0          
T        Si     0.841000000000     0.784000000000     0.939400000000     0          
T        Si     0.765950000000     0.859050000000     0.515950000000     0          
O        O      0.975750000000     0.725750000000     0.602400000000     0          
T        Si     0.966000000000     0.716000000000     0.564400000000     0          
O        O      0.703450000000     0.796550000000     0.750000000000     0          
O        O      0.975750000000     0.522600000000     0.899250000000     0          
O        O      0.953450000000     0.578450000000     0.875000000000     0          
T        Si     0.966000000000     0.560600000000     0.909000000000     0          
O        O      0.727400000000     0.850750000000     0.524250000000     0          
O        O      0.671550000000     0.828450000000     0.500000000000     0          
O        O      0.688950000000     0.812500000000     0.562500000000     0          
T        Si     0.689400000000     0.841000000000     0.534000000000     0          
O        O      0.921550000000     0.546550000000     0.625000000000     0          
O        O      0.647600000000     0.850750000000     0.850750000000     0          
O        O      0.703450000000     0.828450000000     0.875000000000     0          
T        Si     0.685600000000     0.841000000000     0.841000000000     0          
O        O      0.921550000000     0.578450000000     0.500000000000     0          
O        O      0.727400000000     0.774250000000     0.600750000000     0          
O        O      0.671550000000     0.796550000000     0.625000000000     0          
T        Si     0.689400000000     0.784000000000     0.591000000000     0          
O        O      0.975750000000     0.602400000000     0.725750000000     0          
O        O      0.953450000000     0.546550000000     0.750000000000     0          
T        Si     0.966000000000     0.564400000000     0.716000000000     0          
O        O      0.524250000000     0.897600000000     0.774250000000     0          
T        Si     0.534000000000     0.935600000000     0.784000000000     0          
O        O      0.774250000000     0.977400000000     0.850750000000     0          
O        O      0.750000000000     0.921550000000     0.828450000000     0          
O        O      0.812500000000     0.938950000000     0.812500000000     0          
O        O      0.835800000000     0.539200000000     0.789200000000     0          
T        Si     0.784000000000     0.939400000000     0.841000000000     0          
T        Si     0.859050000000     0.515950000000     0.765950000000     0          
O        O      0.772600000000     0.649250000000     0.975750000000     0          
O        O      0.811050000000     0.687500000000     0.937500000000     0          
O        O      0.710800000000     0.710800000000     0.914200000000     0          
T        Si     0.810600000000     0.659000000000     0.966000000000     0          
T        Si     0.734050000000     0.734050000000     0.890950000000     0          
O        O      0.625000000000     0.703450000000     0.578450000000     0          
O        O      0.796550000000     0.500000000000     0.953450000000     0          
O        O      0.625000000000     0.671550000000     0.796550000000     0          
O        O      0.772600000000     0.725750000000     0.899250000000     0          
O        O      0.710800000000     0.664200000000     0.960800000000     0          
T        Si     0.810600000000     0.716000000000     0.909000000000     0          
T        Si     0.734050000000     0.640950000000     0.984050000000     0          
O        O      0.602400000000     0.899250000000     0.649250000000     0          
O        O      0.563950000000     0.937500000000     0.687500000000     0          
O        O      0.664200000000     0.960800000000     0.710800000000     0          
T        Si     0.564400000000     0.909000000000     0.659000000000     0          
T        Si     0.640950000000     0.984050000000     0.734050000000     0          
O        O      0.953450000000     0.750000000000     0.546550000000     0          
O        O      0.500000000000     0.578450000000     0.921550000000     0          
O        O      0.649250000000     0.649250000000     0.852400000000     0          
O        O      0.687500000000     0.687500000000     0.813950000000     0          
T        Si     0.659000000000     0.659000000000     0.814400000000     0          
O        O      0.600750000000     0.774250000000     0.727400000000     0          
O        O      0.625000000000     0.796550000000     0.671550000000     0          
T        Si     0.591000000000     0.784000000000     0.689400000000     0          
O        O      0.953450000000     0.625000000000     0.828450000000     0          
O        O      0.600750000000     0.600750000000     0.647600000000     0          
O        O      0.625000000000     0.578450000000     0.703450000000     0          
T        Si     0.591000000000     0.591000000000     0.685600000000     0          
O        O      0.649250000000     0.725750000000     0.522600000000     0          
O        O      0.671550000000     0.750000000000     0.578450000000     0          
O        O      0.687500000000     0.687500000000     0.561050000000     0          
T        Si     0.659000000000     0.716000000000     0.560600000000     0          
O        O      0.796550000000     0.703450000000     0.750000000000     0          
O        O      0.524250000000     0.977400000000     0.600750000000     0          
O        O      0.546550000000     0.921550000000     0.625000000000     0          
T        Si     0.534000000000     0.939400000000     0.591000000000     0          
O        O      0.828450000000     0.671550000000     0.500000000000     0          
O        O      0.578450000000     0.953450000000     0.875000000000     0          
O        O      0.852400000000     0.649250000000     0.649250000000     0          
O        O      0.796550000000     0.671550000000     0.625000000000     0          
T        Si     0.814400000000     0.659000000000     0.659000000000     0          
O        O      0.578450000000     0.921550000000     0.500000000000     0          
O        O      0.828450000000     0.703450000000     0.875000000000     0          
O        O      0.546550000000     0.953450000000     0.750000000000     0          
O        O      0.725750000000     0.522600000000     0.649250000000     0          
O        O      0.750000000000     0.578450000000     0.671550000000     0          
O        O      0.687500000000     0.561050000000     0.687500000000     0          
T        Si     0.716000000000     0.560600000000     0.659000000000     0          
O        O      0.875000000000     0.796550000000     0.921550000000     0          
O        O      0.703450000000     0.500000000000     0.546550000000     0          
O        O      0.875000000000     0.828450000000     0.703450000000     0          
O        O      0.897600000000     0.600750000000     0.850750000000     0          
O        O      0.936050000000     0.562500000000     0.812500000000     0          
T        Si     0.935600000000     0.591000000000     0.841000000000     0          
O        O      0.774250000000     0.524250000000     0.897600000000     0          
O        O      0.835800000000     0.585800000000     0.835800000000     0          
T        Si     0.784000000000     0.534000000000     0.935600000000     0          
T        Si     0.859050000000     0.609050000000     0.859050000000     0          
O        O      0.725750000000     0.649250000000     0.522600000000     0          
T        Si     0.716000000000     0.659000000000     0.560600000000     0          
O        O      0.578450000000     0.625000000000     0.703450000000     0          
O        O      0.774250000000     0.600750000000     0.727400000000     0          
O        O      0.796550000000     0.625000000000     0.671550000000     0          
T        Si     0.784000000000     0.591000000000     0.689400000000     0          
O        O      0.578450000000     0.500000000000     0.921550000000     0          
O        O      0.725750000000     0.975750000000     0.602400000000     0          
O        O      0.750000000000     0.953450000000     0.546550000000     0          
O        O      0.664200000000     0.914200000000     0.664200000000     0          
T        Si     0.716000000000     0.966000000000     0.564400000000     0          
T        Si     0.640950000000     0.890950000000     0.640950000000     0          
O        O      0.897600000000     0.524250000000     0.774250000000     0          
T        Si     0.935600000000     0.534000000000     0.784000000000     0          
O        O      0.977400000000     0.600750000000     0.524250000000     0          
O        O      0.938950000000     0.562500000000     0.562500000000     0          
T        Si     0.939400000000     0.591000000000     0.534000000000     0          
O        O      0.649250000000     0.852400000000     0.649250000000     0          
O        O      0.687500000000     0.813950000000     0.687500000000     0          
T        Si     0.659000000000     0.814400000000     0.659000000000     0          
O        O      0.649250000000     0.772600000000     0.975750000000     0          
T        Si     0.659000000000     0.810600000000     0.966000000000     0          
O        O      0.977400000000     0.524250000000     0.600750000000     0          
T        Si     0.939400000000     0.534000000000     0.591000000000     0          
O        O      0.725750000000     0.852400000000     0.725750000000     0          
T        Si     0.716000000000     0.814400000000     0.716000000000     0          
O        O      0.774250000000     0.647600000000     0.774250000000     0          
O        O      0.750000000000     0.703450000000     0.796550000000     0          
O        O      0.812500000000     0.686050000000     0.812500000000     0          
T        Si     0.784000000000     0.685600000000     0.784000000000     0          
O        O      0.522600000000     0.899250000000     0.975750000000     0          
O        O      0.578450000000     0.875000000000     0.953450000000     0          
O        O      0.561050000000     0.937500000000     0.937500000000     0          
T        Si     0.560600000000     0.909000000000     0.966000000000     0          
O        O      0.850750000000     0.897600000000     0.600750000000     0          
O        O      0.812500000000     0.936050000000     0.562500000000     0          
T        Si     0.841000000000     0.935600000000     0.591000000000     0          
O        O      0.602400000000     0.725750000000     0.975750000000     0          
O        O      0.664200000000     0.664200000000     0.914200000000     0          
T        Si     0.564400000000     0.716000000000     0.966000000000     0          
T        Si     0.640950000000     0.640950000000     0.890950000000     0          
O        O      0.850750000000     0.977400000000     0.774250000000     0          
T        Si     0.841000000000     0.939400000000     0.784000000000     0          
O        O      0.522600000000     0.975750000000     0.899250000000     0          
T        Si     0.560600000000     0.966000000000     0.909000000000     0          
O        O      0.774250000000     0.850750000000     0.977400000000     0          
T        Si     0.784000000000     0.841000000000     0.939400000000     0          
O        O      0.921550000000     0.875000000000     0.796550000000     0          
O        O      0.725750000000     0.899250000000     0.772600000000     0          
O        O      0.703450000000     0.875000000000     0.828450000000     0          
T        Si     0.716000000000     0.909000000000     0.810600000000     0          
O        O      0.921550000000     0.500000000000     0.578450000000     0          
O        O      0.750000000000     0.546550000000     0.953450000000     0          
O        O      0.602400000000     0.975750000000     0.725750000000     0          
T        Si     0.564400000000     0.966000000000     0.716000000000     0          
O        O      0.850750000000     0.647600000000     0.850750000000     0          
T        Si     0.841000000000     0.685600000000     0.841000000000     0          
O        O      0.850750000000     0.727400000000     0.524250000000     0          
T        Si     0.841000000000     0.689400000000     0.534000000000     0          
O        O      0.750000000000     0.796550000000     0.703450000000     0          
O        O      0.921550000000     0.625000000000     0.546550000000     0          
O        O      0.649250000000     0.602400000000     0.899250000000     0          
O        O      0.687500000000     0.563950000000     0.937500000000     0          
T        Si     0.659000000000     0.564400000000     0.909000000000     0          
O        O      0.897600000000     0.774250000000     0.524250000000     0          
O        O      0.835800000000     0.835800000000     0.585800000000     0          
T        Si     0.935600000000     0.784000000000     0.534000000000     0          
T        Si     0.859050000000     0.859050000000     0.609050000000     0          
O        O      0.649250000000     0.522600000000     0.725750000000     0          
T        Si     0.659000000000     0.560600000000     0.716000000000     0          
O        O      0.774250000000     0.774250000000     0.647600000000     0          
T        Si     0.784000000000     0.784000000000     0.685600000000     0          
O        O      0.796550000000     0.875000000000     0.921550000000     0          
O        O      0.578450000000     0.750000000000     0.671550000000     0          
O        O      0.725750000000     0.725750000000     0.852400000000     0          
T        Si     0.716000000000     0.716000000000     0.814400000000     0          
O        O      0.977400000000     0.850750000000     0.774250000000     0          
O        O      0.938950000000     0.812500000000     0.812500000000     0          
T        Si     0.939400000000     0.841000000000     0.784000000000     0          
O        O      0.977400000000     0.774250000000     0.850750000000     0          
T        Si     0.939400000000     0.784000000000     0.841000000000     0          
O        O      0.725750000000     0.602400000000     0.975750000000     0          
T        Si     0.716000000000     0.564400000000     0.966000000000     0          
O        O      0.774250000000     0.897600000000     0.524250000000     0          
T        Si     0.784000000000     0.935600000000     0.534000000000     0          
O        O      0.522600000000     0.649250000000     0.725750000000     0          
O        O      0.561050000000     0.687500000000     0.687500000000     0          
T        Si     0.560600000000     0.659000000000     0.716000000000     0          
O        O      0.522600000000     0.725750000000     0.649250000000     0          
T        Si     0.560600000000     0.716000000000     0.659000000000     0          
O        O      0.703450000000     0.625000000000     0.578450000000     0          
O        O      0.921550000000     0.750000000000     0.828450000000     0          


