data_zeolite

_audit_creation_method RASPA-1.0
_audit_creation_date 2021-6-6
_audit_author_name ''

_cell_length_a    37.176
_cell_length_b    37.176
_cell_length_c    30.469
_cell_angle_alpha 90
_cell_angle_beta  90
_cell_angle_gamma 120
_cell_volume      36468.2

_symmetry_cell_setting          hexagonal
_symmetry_space_group_name_Hall 'P 1'
_symmetry_space_group_name_H-M  'P 1'
_symmetry_Int_Tables_number     1

_symmetry_equiv_pos_as_xyz 'x,y,z'

loop_
_atom_site_label
_atom_site_type_symbol
_atom_site_fract_x
_atom_site_fract_y
_atom_site_fract_z
_atom_site_charge
O        O      0.038766666667     0.294566666667     0.013600000000     0          
O        O      0.008166666667     0.217533333333     0.122700000000     0          
O        O      0.294400000000     0.147200000000     0.080900000000     0          
O        O      0.264300000000     0.195300000000     0.103000000000     0          
O        O      0.150833333333     0.182500000000     0.182700000000     0          
O        O      0.193766666667     0.263533333333     0.176500000000     0          
O        O      0.229000000000     0.222633333333     0.206700000000     0          
O        O      0.156500000000     0.313000000000     0.750000000000     0          
O        O      0.179566666667     0.256433333333     0.750000000000     0          
O        O      0.320433333333     0.218633333333     0.040800000000     0          
T        Si     0.305200000000     0.194566666667     0.086900000000     0          
T        Si     0.195866666667     0.221566666667     0.171800000000     0          
T        Si     0.305433333333     0.195466666667     0.250000000000     0          
T        Si     0.083133333333     0.000000000000     0.000000000000     0          
O        O      0.077533333333     0.038766666667     0.513600000000     0          
O        O      0.123966666667     0.008166666667     0.622700000000     0          
O        O      0.147200000000     0.294400000000     0.580900000000     0          
O        O      0.069000000000     0.264300000000     0.603000000000     0          
O        O      0.301666666667     0.150833333333     0.682700000000     0          
O        O      0.263566666667     0.193766666667     0.676500000000     0          
O        O      0.006366666667     0.229000000000     0.706700000000     0          
O        O      0.176833333333     0.156500000000     0.250000000000     0          
O        O      0.256466666667     0.179566666667     0.250000000000     0          
O        O      0.101800000000     0.320433333333     0.540800000000     0          
T        Si     0.110633333333     0.305200000000     0.586900000000     0          
T        Si     0.307633333333     0.195866666667     0.671800000000     0          
T        Si     0.109966666667     0.305433333333     0.750000000000     0          
T        Si     0.083133333333     0.083133333333     0.500000000000     0          
O        O      0.038766666667     0.077533333333     0.013600000000     0          
O        O      0.115800000000     0.123966666667     0.122700000000     0          
O        O      0.186133333333     0.147200000000     0.080900000000     0          
O        O      0.138033333333     0.069000000000     0.103000000000     0          
O        O      0.150833333333     0.301666666667     0.182700000000     0          
O        O      0.069800000000     0.263566666667     0.176500000000     0          
O        O      0.110700000000     0.006366666667     0.206700000000     0          
O        O      0.020333333333     0.176833333333     0.750000000000     0          
O        O      0.076900000000     0.256466666667     0.750000000000     0          
O        O      0.114700000000     0.101800000000     0.040800000000     0          
T        Si     0.138766666667     0.110633333333     0.086900000000     0          
T        Si     0.111766666667     0.307633333333     0.171800000000     0          
T        Si     0.137866666667     0.109966666667     0.250000000000     0          
T        Si     0.000000000000     0.083133333333     0.000000000000     0          
O        O      0.294566666667     0.038766666667     0.513600000000     0          
O        O      0.325166666667     0.115800000000     0.622700000000     0          
O        O      0.038933333333     0.186133333333     0.580900000000     0          
O        O      0.069033333333     0.138033333333     0.603000000000     0          
O        O      0.182500000000     0.150833333333     0.682700000000     0          
O        O      0.139566666667     0.069800000000     0.676500000000     0          
O        O      0.104333333333     0.110700000000     0.706700000000     0          
O        O      0.176833333333     0.020333333333     0.250000000000     0          
O        O      0.153766666667     0.076900000000     0.250000000000     0          
O        O      0.012900000000     0.114700000000     0.540800000000     0          
T        Si     0.028133333333     0.138766666667     0.586900000000     0          
T        Si     0.137466666667     0.111766666667     0.671800000000     0          
T        Si     0.027900000000     0.137866666667     0.750000000000     0          
T        Si     0.250200000000     0.000000000000     0.500000000000     0          
O        O      0.255800000000     0.294566666667     0.013600000000     0          
O        O      0.209366666667     0.325166666667     0.122700000000     0          
O        O      0.186133333333     0.038933333333     0.080900000000     0          
O        O      0.264333333333     0.069033333333     0.103000000000     0          
O        O      0.031666666667     0.182500000000     0.182700000000     0          
O        O      0.069766666667     0.139566666667     0.176500000000     0          
O        O      0.326966666667     0.104333333333     0.206700000000     0          
O        O      0.156500000000     0.176833333333     0.750000000000     0          
O        O      0.076866666667     0.153766666667     0.750000000000     0          
O        O      0.231533333333     0.012900000000     0.040800000000     0          
T        Si     0.222700000000     0.028133333333     0.086900000000     0          
T        Si     0.025700000000     0.137466666667     0.171800000000     0          
T        Si     0.223366666667     0.027900000000     0.250000000000     0          
T        Si     0.250200000000     0.250200000000     0.000000000000     0          
O        O      0.294566666667     0.255800000000     0.513600000000     0          
O        O      0.217533333333     0.209366666667     0.622700000000     0          
O        O      0.147200000000     0.186133333333     0.580900000000     0          
O        O      0.195300000000     0.264333333333     0.603000000000     0          
O        O      0.182500000000     0.031666666667     0.682700000000     0          
O        O      0.263533333333     0.069766666667     0.676500000000     0          
O        O      0.222633333333     0.326966666667     0.706700000000     0          
O        O      0.313000000000     0.156500000000     0.250000000000     0          
O        O      0.256433333333     0.076866666667     0.250000000000     0          
O        O      0.218633333333     0.231533333333     0.540800000000     0          
T        Si     0.194566666667     0.222700000000     0.586900000000     0          
T        Si     0.221566666667     0.025700000000     0.671800000000     0          
T        Si     0.195466666667     0.223366666667     0.750000000000     0          
T        Si     0.000000000000     0.250200000000     0.500000000000     0          
O        O      0.038766666667     0.294566666667     0.486400000000     0          
O        O      0.115800000000     0.325166666667     0.377300000000     0          
O        O      0.186133333333     0.038933333333     0.419100000000     0          
O        O      0.138033333333     0.069033333333     0.397000000000     0          
O        O      0.150833333333     0.182500000000     0.317300000000     0          
O        O      0.069800000000     0.139566666667     0.323500000000     0          
O        O      0.110700000000     0.104333333333     0.293300000000     0          
O        O      0.114700000000     0.012900000000     0.459200000000     0          
T        Si     0.138766666667     0.028133333333     0.413100000000     0          
T        Si     0.111766666667     0.137466666667     0.328200000000     0          
T        Si     0.137866666667     0.027900000000     0.250000000000     0          
O        O      0.077533333333     0.038766666667     0.986400000000     0          
O        O      0.123966666667     0.115800000000     0.877300000000     0          
O        O      0.147200000000     0.186133333333     0.919100000000     0          
O        O      0.069000000000     0.138033333333     0.897000000000     0          
O        O      0.301666666667     0.150833333333     0.817300000000     0          
O        O      0.263566666667     0.069800000000     0.823500000000     0          
O        O      0.006366666667     0.110700000000     0.793300000000     0          
O        O      0.101800000000     0.114700000000     0.959200000000     0          
T        Si     0.110633333333     0.138766666667     0.913100000000     0          
T        Si     0.307633333333     0.111766666667     0.828200000000     0          
T        Si     0.109966666667     0.137866666667     0.750000000000     0          
O        O      0.038766666667     0.077533333333     0.486400000000     0          
O        O      0.008166666667     0.123966666667     0.377300000000     0          
O        O      0.294400000000     0.147200000000     0.419100000000     0          
O        O      0.264300000000     0.069000000000     0.397000000000     0          
O        O      0.150833333333     0.301666666667     0.317300000000     0          
O        O      0.193766666667     0.263566666667     0.323500000000     0          
O        O      0.229000000000     0.006366666667     0.293300000000     0          
O        O      0.320433333333     0.101800000000     0.459200000000     0          
T        Si     0.305200000000     0.110633333333     0.413100000000     0          
T        Si     0.195866666667     0.307633333333     0.328200000000     0          
T        Si     0.305433333333     0.109966666667     0.250000000000     0          
O        O      0.294566666667     0.038766666667     0.986400000000     0          
O        O      0.217533333333     0.008166666667     0.877300000000     0          
O        O      0.147200000000     0.294400000000     0.919100000000     0          
O        O      0.195300000000     0.264300000000     0.897000000000     0          
O        O      0.182500000000     0.150833333333     0.817300000000     0          
O        O      0.263533333333     0.193766666667     0.823500000000     0          
O        O      0.222633333333     0.229000000000     0.793300000000     0          
O        O      0.218633333333     0.320433333333     0.959200000000     0          
T        Si     0.194566666667     0.305200000000     0.913100000000     0          
T        Si     0.221566666667     0.195866666667     0.828200000000     0          
T        Si     0.195466666667     0.305433333333     0.750000000000     0          
O        O      0.255800000000     0.294566666667     0.486400000000     0          
O        O      0.209366666667     0.217533333333     0.377300000000     0          
O        O      0.186133333333     0.147200000000     0.419100000000     0          
O        O      0.264333333333     0.195300000000     0.397000000000     0          
O        O      0.031666666667     0.182500000000     0.317300000000     0          
O        O      0.069766666667     0.263533333333     0.323500000000     0          
O        O      0.326966666667     0.222633333333     0.293300000000     0          
O        O      0.231533333333     0.218633333333     0.459200000000     0          
T        Si     0.222700000000     0.194566666667     0.413100000000     0          
T        Si     0.025700000000     0.221566666667     0.328200000000     0          
T        Si     0.223366666667     0.195466666667     0.250000000000     0          
O        O      0.294566666667     0.255800000000     0.986400000000     0          
O        O      0.325166666667     0.209366666667     0.877300000000     0          
O        O      0.038933333333     0.186133333333     0.919100000000     0          
O        O      0.069033333333     0.264333333333     0.897000000000     0          
O        O      0.182500000000     0.031666666667     0.817300000000     0          
O        O      0.139566666667     0.069766666667     0.823500000000     0          
O        O      0.104333333333     0.326966666667     0.793300000000     0          
O        O      0.012900000000     0.231533333333     0.959200000000     0          
T        Si     0.028133333333     0.222700000000     0.913100000000     0          
T        Si     0.137466666667     0.025700000000     0.828200000000     0          
T        Si     0.027900000000     0.223366666667     0.750000000000     0          
O        O      0.325166666667     0.115800000000     0.877300000000     0          
O        O      0.104333333333     0.110700000000     0.793300000000     0          
O        O      0.012900000000     0.114700000000     0.959200000000     0          
T        Si     0.028133333333     0.138766666667     0.913100000000     0          
T        Si     0.137466666667     0.111766666667     0.828200000000     0          
T        Si     0.250200000000     0.000000000000     0.000000000000     0          
O        O      0.209366666667     0.325166666667     0.377300000000     0          
O        O      0.326966666667     0.104333333333     0.293300000000     0          
O        O      0.231533333333     0.012900000000     0.459200000000     0          
T        Si     0.222700000000     0.028133333333     0.413100000000     0          
T        Si     0.025700000000     0.137466666667     0.328200000000     0          
T        Si     0.250200000000     0.250200000000     0.500000000000     0          
O        O      0.217533333333     0.209366666667     0.877300000000     0          
O        O      0.222633333333     0.326966666667     0.793300000000     0          
O        O      0.218633333333     0.231533333333     0.959200000000     0          
T        Si     0.194566666667     0.222700000000     0.913100000000     0          
T        Si     0.221566666667     0.025700000000     0.828200000000     0          
T        Si     0.000000000000     0.250200000000     0.000000000000     0          
O        O      0.008166666667     0.217533333333     0.377300000000     0          
O        O      0.229000000000     0.222633333333     0.293300000000     0          
O        O      0.320433333333     0.218633333333     0.459200000000     0          
T        Si     0.305200000000     0.194566666667     0.413100000000     0          
T        Si     0.195866666667     0.221566666667     0.328200000000     0          
T        Si     0.083133333333     0.000000000000     0.500000000000     0          
O        O      0.123966666667     0.008166666667     0.877300000000     0          
O        O      0.006366666667     0.229000000000     0.793300000000     0          
O        O      0.101800000000     0.320433333333     0.959200000000     0          
T        Si     0.110633333333     0.305200000000     0.913100000000     0          
T        Si     0.307633333333     0.195866666667     0.828200000000     0          
T        Si     0.083133333333     0.083133333333     0.000000000000     0          
O        O      0.115800000000     0.123966666667     0.377300000000     0          
O        O      0.110700000000     0.006366666667     0.293300000000     0          
O        O      0.114700000000     0.101800000000     0.459200000000     0          
T        Si     0.138766666667     0.110633333333     0.413100000000     0          
T        Si     0.111766666667     0.307633333333     0.328200000000     0          
T        Si     0.000000000000     0.083133333333     0.500000000000     0          
O        O      0.217533333333     0.008166666667     0.622700000000     0          
O        O      0.222633333333     0.229000000000     0.706700000000     0          
O        O      0.218633333333     0.320433333333     0.540800000000     0          
T        Si     0.194566666667     0.305200000000     0.586900000000     0          
T        Si     0.221566666667     0.195866666667     0.671800000000     0          
O        O      0.209366666667     0.217533333333     0.122700000000     0          
O        O      0.326966666667     0.222633333333     0.206700000000     0          
O        O      0.231533333333     0.218633333333     0.040800000000     0          
T        Si     0.222700000000     0.194566666667     0.086900000000     0          
T        Si     0.025700000000     0.221566666667     0.171800000000     0          
O        O      0.325166666667     0.209366666667     0.622700000000     0          
O        O      0.104333333333     0.326966666667     0.706700000000     0          
O        O      0.012900000000     0.231533333333     0.540800000000     0          
T        Si     0.028133333333     0.222700000000     0.586900000000     0          
T        Si     0.137466666667     0.025700000000     0.671800000000     0          
O        O      0.115800000000     0.325166666667     0.122700000000     0          
O        O      0.110700000000     0.104333333333     0.206700000000     0          
O        O      0.114700000000     0.012900000000     0.040800000000     0          
T        Si     0.138766666667     0.028133333333     0.086900000000     0          
T        Si     0.111766666667     0.137466666667     0.171800000000     0          
O        O      0.123966666667     0.115800000000     0.622700000000     0          
O        O      0.006366666667     0.110700000000     0.706700000000     0          
O        O      0.101800000000     0.114700000000     0.540800000000     0          
T        Si     0.110633333333     0.138766666667     0.586900000000     0          
T        Si     0.307633333333     0.111766666667     0.671800000000     0          
O        O      0.008166666667     0.123966666667     0.122700000000     0          
O        O      0.229000000000     0.006366666667     0.206700000000     0          
O        O      0.320433333333     0.101800000000     0.040800000000     0          
T        Si     0.305200000000     0.110633333333     0.086900000000     0          
T        Si     0.195866666667     0.307633333333     0.171800000000     0          
O        O      0.038766666667     0.627900000000     0.013600000000     0          
O        O      0.008166666667     0.550866666667     0.122700000000     0          
O        O      0.294400000000     0.480533333333     0.080900000000     0          
O        O      0.264300000000     0.528633333333     0.103000000000     0          
O        O      0.150833333333     0.515833333333     0.182700000000     0          
O        O      0.193766666667     0.596866666667     0.176500000000     0          
O        O      0.229000000000     0.555966666667     0.206700000000     0          
O        O      0.156500000000     0.646333333333     0.750000000000     0          
O        O      0.179566666667     0.589766666667     0.750000000000     0          
O        O      0.320433333333     0.551966666667     0.040800000000     0          
T        Si     0.305200000000     0.527900000000     0.086900000000     0          
T        Si     0.195866666667     0.554900000000     0.171800000000     0          
T        Si     0.305433333333     0.528800000000     0.250000000000     0          
T        Si     0.083133333333     0.333333333333     0.000000000000     0          
O        O      0.077533333333     0.372100000000     0.513600000000     0          
O        O      0.123966666667     0.341500000000     0.622700000000     0          
O        O      0.147200000000     0.627733333333     0.580900000000     0          
O        O      0.069000000000     0.597633333333     0.603000000000     0          
O        O      0.301666666667     0.484166666667     0.682700000000     0          
O        O      0.263566666667     0.527100000000     0.676500000000     0          
O        O      0.006366666667     0.562333333333     0.706700000000     0          
O        O      0.176833333333     0.489833333333     0.250000000000     0          
O        O      0.256466666667     0.512900000000     0.250000000000     0          
O        O      0.101800000000     0.653766666667     0.540800000000     0          
T        Si     0.110633333333     0.638533333333     0.586900000000     0          
T        Si     0.307633333333     0.529200000000     0.671800000000     0          
T        Si     0.109966666667     0.638766666667     0.750000000000     0          
T        Si     0.083133333333     0.416466666667     0.500000000000     0          
O        O      0.038766666667     0.410866666667     0.013600000000     0          
O        O      0.115800000000     0.457300000000     0.122700000000     0          
O        O      0.186133333333     0.480533333333     0.080900000000     0          
O        O      0.138033333333     0.402333333333     0.103000000000     0          
O        O      0.150833333333     0.635000000000     0.182700000000     0          
O        O      0.069800000000     0.596900000000     0.176500000000     0          
O        O      0.110700000000     0.339700000000     0.206700000000     0          
O        O      0.020333333333     0.510166666667     0.750000000000     0          
O        O      0.076900000000     0.589800000000     0.750000000000     0          
O        O      0.114700000000     0.435133333333     0.040800000000     0          
T        Si     0.138766666667     0.443966666667     0.086900000000     0          
T        Si     0.111766666667     0.640966666667     0.171800000000     0          
T        Si     0.137866666667     0.443300000000     0.250000000000     0          
T        Si     0.000000000000     0.416466666667     0.000000000000     0          
O        O      0.294566666667     0.372100000000     0.513600000000     0          
O        O      0.325166666667     0.449133333333     0.622700000000     0          
O        O      0.038933333333     0.519466666667     0.580900000000     0          
O        O      0.069033333333     0.471366666667     0.603000000000     0          
O        O      0.182500000000     0.484166666667     0.682700000000     0          
O        O      0.139566666667     0.403133333333     0.676500000000     0          
O        O      0.104333333333     0.444033333333     0.706700000000     0          
O        O      0.176833333333     0.353666666667     0.250000000000     0          
O        O      0.153766666667     0.410233333333     0.250000000000     0          
O        O      0.012900000000     0.448033333333     0.540800000000     0          
T        Si     0.028133333333     0.472100000000     0.586900000000     0          
T        Si     0.137466666667     0.445100000000     0.671800000000     0          
T        Si     0.027900000000     0.471200000000     0.750000000000     0          
T        Si     0.250200000000     0.333333333333     0.500000000000     0          
O        O      0.255800000000     0.627900000000     0.013600000000     0          
O        O      0.209366666667     0.658500000000     0.122700000000     0          
O        O      0.186133333333     0.372266666667     0.080900000000     0          
O        O      0.264333333333     0.402366666667     0.103000000000     0          
O        O      0.031666666667     0.515833333333     0.182700000000     0          
O        O      0.069766666667     0.472900000000     0.176500000000     0          
O        O      0.326966666667     0.437666666667     0.206700000000     0          
O        O      0.156500000000     0.510166666667     0.750000000000     0          
O        O      0.076866666667     0.487100000000     0.750000000000     0          
O        O      0.231533333333     0.346233333333     0.040800000000     0          
T        Si     0.222700000000     0.361466666667     0.086900000000     0          
T        Si     0.025700000000     0.470800000000     0.171800000000     0          
T        Si     0.223366666667     0.361233333333     0.250000000000     0          
T        Si     0.250200000000     0.583533333333     0.000000000000     0          
O        O      0.294566666667     0.589133333333     0.513600000000     0          
O        O      0.217533333333     0.542700000000     0.622700000000     0          
O        O      0.147200000000     0.519466666667     0.580900000000     0          
O        O      0.195300000000     0.597666666667     0.603000000000     0          
O        O      0.182500000000     0.365000000000     0.682700000000     0          
O        O      0.263533333333     0.403100000000     0.676500000000     0          
O        O      0.222633333333     0.660300000000     0.706700000000     0          
O        O      0.313000000000     0.489833333333     0.250000000000     0          
O        O      0.256433333333     0.410200000000     0.250000000000     0          
O        O      0.218633333333     0.564866666667     0.540800000000     0          
T        Si     0.194566666667     0.556033333333     0.586900000000     0          
T        Si     0.221566666667     0.359033333333     0.671800000000     0          
T        Si     0.195466666667     0.556700000000     0.750000000000     0          
T        Si     0.000000000000     0.583533333333     0.500000000000     0          
O        O      0.038766666667     0.627900000000     0.486400000000     0          
O        O      0.115800000000     0.658500000000     0.377300000000     0          
O        O      0.186133333333     0.372266666667     0.419100000000     0          
O        O      0.138033333333     0.402366666667     0.397000000000     0          
O        O      0.150833333333     0.515833333333     0.317300000000     0          
O        O      0.069800000000     0.472900000000     0.323500000000     0          
O        O      0.110700000000     0.437666666667     0.293300000000     0          
O        O      0.114700000000     0.346233333333     0.459200000000     0          
T        Si     0.138766666667     0.361466666667     0.413100000000     0          
T        Si     0.111766666667     0.470800000000     0.328200000000     0          
T        Si     0.137866666667     0.361233333333     0.250000000000     0          
O        O      0.077533333333     0.372100000000     0.986400000000     0          
O        O      0.123966666667     0.449133333333     0.877300000000     0          
O        O      0.147200000000     0.519466666667     0.919100000000     0          
O        O      0.069000000000     0.471366666667     0.897000000000     0          
O        O      0.301666666667     0.484166666667     0.817300000000     0          
O        O      0.263566666667     0.403133333333     0.823500000000     0          
O        O      0.006366666667     0.444033333333     0.793300000000     0          
O        O      0.101800000000     0.448033333333     0.959200000000     0          
T        Si     0.110633333333     0.472100000000     0.913100000000     0          
T        Si     0.307633333333     0.445100000000     0.828200000000     0          
T        Si     0.109966666667     0.471200000000     0.750000000000     0          
O        O      0.038766666667     0.410866666667     0.486400000000     0          
O        O      0.008166666667     0.457300000000     0.377300000000     0          
O        O      0.294400000000     0.480533333333     0.419100000000     0          
O        O      0.264300000000     0.402333333333     0.397000000000     0          
O        O      0.150833333333     0.635000000000     0.317300000000     0          
O        O      0.193766666667     0.596900000000     0.323500000000     0          
O        O      0.229000000000     0.339700000000     0.293300000000     0          
O        O      0.320433333333     0.435133333333     0.459200000000     0          
T        Si     0.305200000000     0.443966666667     0.413100000000     0          
T        Si     0.195866666667     0.640966666667     0.328200000000     0          
T        Si     0.305433333333     0.443300000000     0.250000000000     0          
O        O      0.294566666667     0.372100000000     0.986400000000     0          
O        O      0.217533333333     0.341500000000     0.877300000000     0          
O        O      0.147200000000     0.627733333333     0.919100000000     0          
O        O      0.195300000000     0.597633333333     0.897000000000     0          
O        O      0.182500000000     0.484166666667     0.817300000000     0          
O        O      0.263533333333     0.527100000000     0.823500000000     0          
O        O      0.222633333333     0.562333333333     0.793300000000     0          
O        O      0.218633333333     0.653766666667     0.959200000000     0          
T        Si     0.194566666667     0.638533333333     0.913100000000     0          
T        Si     0.221566666667     0.529200000000     0.828200000000     0          
T        Si     0.195466666667     0.638766666667     0.750000000000     0          
O        O      0.255800000000     0.627900000000     0.486400000000     0          
O        O      0.209366666667     0.550866666667     0.377300000000     0          
O        O      0.186133333333     0.480533333333     0.419100000000     0          
O        O      0.264333333333     0.528633333333     0.397000000000     0          
O        O      0.031666666667     0.515833333333     0.317300000000     0          
O        O      0.069766666667     0.596866666667     0.323500000000     0          
O        O      0.326966666667     0.555966666667     0.293300000000     0          
O        O      0.231533333333     0.551966666667     0.459200000000     0          
T        Si     0.222700000000     0.527900000000     0.413100000000     0          
T        Si     0.025700000000     0.554900000000     0.328200000000     0          
T        Si     0.223366666667     0.528800000000     0.250000000000     0          
O        O      0.294566666667     0.589133333333     0.986400000000     0          
O        O      0.325166666667     0.542700000000     0.877300000000     0          
O        O      0.038933333333     0.519466666667     0.919100000000     0          
O        O      0.069033333333     0.597666666667     0.897000000000     0          
O        O      0.182500000000     0.365000000000     0.817300000000     0          
O        O      0.139566666667     0.403100000000     0.823500000000     0          
O        O      0.104333333333     0.660300000000     0.793300000000     0          
O        O      0.012900000000     0.564866666667     0.959200000000     0          
T        Si     0.028133333333     0.556033333333     0.913100000000     0          
T        Si     0.137466666667     0.359033333333     0.828200000000     0          
T        Si     0.027900000000     0.556700000000     0.750000000000     0          
O        O      0.325166666667     0.449133333333     0.877300000000     0          
O        O      0.104333333333     0.444033333333     0.793300000000     0          
O        O      0.012900000000     0.448033333333     0.959200000000     0          
T        Si     0.028133333333     0.472100000000     0.913100000000     0          
T        Si     0.137466666667     0.445100000000     0.828200000000     0          
T        Si     0.250200000000     0.333333333333     0.000000000000     0          
O        O      0.209366666667     0.658500000000     0.377300000000     0          
O        O      0.326966666667     0.437666666667     0.293300000000     0          
O        O      0.231533333333     0.346233333333     0.459200000000     0          
T        Si     0.222700000000     0.361466666667     0.413100000000     0          
T        Si     0.025700000000     0.470800000000     0.328200000000     0          
T        Si     0.250200000000     0.583533333333     0.500000000000     0          
O        O      0.217533333333     0.542700000000     0.877300000000     0          
O        O      0.222633333333     0.660300000000     0.793300000000     0          
O        O      0.218633333333     0.564866666667     0.959200000000     0          
T        Si     0.194566666667     0.556033333333     0.913100000000     0          
T        Si     0.221566666667     0.359033333333     0.828200000000     0          
T        Si     0.000000000000     0.583533333333     0.000000000000     0          
O        O      0.008166666667     0.550866666667     0.377300000000     0          
O        O      0.229000000000     0.555966666667     0.293300000000     0          
O        O      0.320433333333     0.551966666667     0.459200000000     0          
T        Si     0.305200000000     0.527900000000     0.413100000000     0          
T        Si     0.195866666667     0.554900000000     0.328200000000     0          
T        Si     0.083133333333     0.333333333333     0.500000000000     0          
O        O      0.123966666667     0.341500000000     0.877300000000     0          
O        O      0.006366666667     0.562333333333     0.793300000000     0          
O        O      0.101800000000     0.653766666667     0.959200000000     0          
T        Si     0.110633333333     0.638533333333     0.913100000000     0          
T        Si     0.307633333333     0.529200000000     0.828200000000     0          
T        Si     0.083133333333     0.416466666667     0.000000000000     0          
O        O      0.115800000000     0.457300000000     0.377300000000     0          
O        O      0.110700000000     0.339700000000     0.293300000000     0          
O        O      0.114700000000     0.435133333333     0.459200000000     0          
T        Si     0.138766666667     0.443966666667     0.413100000000     0          
T        Si     0.111766666667     0.640966666667     0.328200000000     0          
T        Si     0.000000000000     0.416466666667     0.500000000000     0          
O        O      0.217533333333     0.341500000000     0.622700000000     0          
O        O      0.222633333333     0.562333333333     0.706700000000     0          
O        O      0.218633333333     0.653766666667     0.540800000000     0          
T        Si     0.194566666667     0.638533333333     0.586900000000     0          
T        Si     0.221566666667     0.529200000000     0.671800000000     0          
O        O      0.209366666667     0.550866666667     0.122700000000     0          
O        O      0.326966666667     0.555966666667     0.206700000000     0          
O        O      0.231533333333     0.551966666667     0.040800000000     0          
T        Si     0.222700000000     0.527900000000     0.086900000000     0          
T        Si     0.025700000000     0.554900000000     0.171800000000     0          
O        O      0.325166666667     0.542700000000     0.622700000000     0          
O        O      0.104333333333     0.660300000000     0.706700000000     0          
O        O      0.012900000000     0.564866666667     0.540800000000     0          
T        Si     0.028133333333     0.556033333333     0.586900000000     0          
T        Si     0.137466666667     0.359033333333     0.671800000000     0          
O        O      0.115800000000     0.658500000000     0.122700000000     0          
O        O      0.110700000000     0.437666666667     0.206700000000     0          
O        O      0.114700000000     0.346233333333     0.040800000000     0          
T        Si     0.138766666667     0.361466666667     0.086900000000     0          
T        Si     0.111766666667     0.470800000000     0.171800000000     0          
O        O      0.123966666667     0.449133333333     0.622700000000     0          
O        O      0.006366666667     0.444033333333     0.706700000000     0          
O        O      0.101800000000     0.448033333333     0.540800000000     0          
T        Si     0.110633333333     0.472100000000     0.586900000000     0          
T        Si     0.307633333333     0.445100000000     0.671800000000     0          
O        O      0.008166666667     0.457300000000     0.122700000000     0          
O        O      0.229000000000     0.339700000000     0.206700000000     0          
O        O      0.320433333333     0.435133333333     0.040800000000     0          
T        Si     0.305200000000     0.443966666667     0.086900000000     0          
T        Si     0.195866666667     0.640966666667     0.171800000000     0          
O        O      0.038766666667     0.961233333333     0.013600000000     0          
O        O      0.008166666667     0.884200000000     0.122700000000     0          
O        O      0.294400000000     0.813866666667     0.080900000000     0          
O        O      0.264300000000     0.861966666667     0.103000000000     0          
O        O      0.150833333333     0.849166666667     0.182700000000     0          
O        O      0.193766666667     0.930200000000     0.176500000000     0          
O        O      0.229000000000     0.889300000000     0.206700000000     0          
O        O      0.156500000000     0.979666666667     0.750000000000     0          
O        O      0.179566666667     0.923100000000     0.750000000000     0          
O        O      0.320433333333     0.885300000000     0.040800000000     0          
T        Si     0.305200000000     0.861233333333     0.086900000000     0          
T        Si     0.195866666667     0.888233333333     0.171800000000     0          
T        Si     0.305433333333     0.862133333333     0.250000000000     0          
T        Si     0.083133333333     0.666666666667     0.000000000000     0          
O        O      0.077533333333     0.705433333333     0.513600000000     0          
O        O      0.123966666667     0.674833333333     0.622700000000     0          
O        O      0.147200000000     0.961066666667     0.580900000000     0          
O        O      0.069000000000     0.930966666667     0.603000000000     0          
O        O      0.301666666667     0.817500000000     0.682700000000     0          
O        O      0.263566666667     0.860433333333     0.676500000000     0          
O        O      0.006366666667     0.895666666667     0.706700000000     0          
O        O      0.176833333333     0.823166666667     0.250000000000     0          
O        O      0.256466666667     0.846233333333     0.250000000000     0          
O        O      0.101800000000     0.987100000000     0.540800000000     0          
T        Si     0.110633333333     0.971866666667     0.586900000000     0          
T        Si     0.307633333333     0.862533333333     0.671800000000     0          
T        Si     0.109966666667     0.972100000000     0.750000000000     0          
T        Si     0.083133333333     0.749800000000     0.500000000000     0          
O        O      0.038766666667     0.744200000000     0.013600000000     0          
O        O      0.115800000000     0.790633333333     0.122700000000     0          
O        O      0.186133333333     0.813866666667     0.080900000000     0          
O        O      0.138033333333     0.735666666667     0.103000000000     0          
O        O      0.150833333333     0.968333333333     0.182700000000     0          
O        O      0.069800000000     0.930233333333     0.176500000000     0          
O        O      0.110700000000     0.673033333333     0.206700000000     0          
O        O      0.020333333333     0.843500000000     0.750000000000     0          
O        O      0.076900000000     0.923133333333     0.750000000000     0          
O        O      0.114700000000     0.768466666667     0.040800000000     0          
T        Si     0.138766666667     0.777300000000     0.086900000000     0          
T        Si     0.111766666667     0.974300000000     0.171800000000     0          
T        Si     0.137866666667     0.776633333333     0.250000000000     0          
T        Si     0.000000000000     0.749800000000     0.000000000000     0          
O        O      0.294566666667     0.705433333333     0.513600000000     0          
O        O      0.325166666667     0.782466666667     0.622700000000     0          
O        O      0.038933333333     0.852800000000     0.580900000000     0          
O        O      0.069033333333     0.804700000000     0.603000000000     0          
O        O      0.182500000000     0.817500000000     0.682700000000     0          
O        O      0.139566666667     0.736466666667     0.676500000000     0          
O        O      0.104333333333     0.777366666667     0.706700000000     0          
O        O      0.176833333333     0.687000000000     0.250000000000     0          
O        O      0.153766666667     0.743566666667     0.250000000000     0          
O        O      0.012900000000     0.781366666667     0.540800000000     0          
T        Si     0.028133333333     0.805433333333     0.586900000000     0          
T        Si     0.137466666667     0.778433333333     0.671800000000     0          
T        Si     0.027900000000     0.804533333333     0.750000000000     0          
T        Si     0.250200000000     0.666666666667     0.500000000000     0          
O        O      0.255800000000     0.961233333333     0.013600000000     0          
O        O      0.209366666667     0.991833333333     0.122700000000     0          
O        O      0.186133333333     0.705600000000     0.080900000000     0          
O        O      0.264333333333     0.735700000000     0.103000000000     0          
O        O      0.031666666667     0.849166666667     0.182700000000     0          
O        O      0.069766666667     0.806233333333     0.176500000000     0          
O        O      0.326966666667     0.771000000000     0.206700000000     0          
O        O      0.156500000000     0.843500000000     0.750000000000     0          
O        O      0.076866666667     0.820433333333     0.750000000000     0          
O        O      0.231533333333     0.679566666667     0.040800000000     0          
T        Si     0.222700000000     0.694800000000     0.086900000000     0          
T        Si     0.025700000000     0.804133333333     0.171800000000     0          
T        Si     0.223366666667     0.694566666667     0.250000000000     0          
T        Si     0.250200000000     0.916866666667     0.000000000000     0          
O        O      0.294566666667     0.922466666667     0.513600000000     0          
O        O      0.217533333333     0.876033333333     0.622700000000     0          
O        O      0.147200000000     0.852800000000     0.580900000000     0          
O        O      0.195300000000     0.931000000000     0.603000000000     0          
O        O      0.182500000000     0.698333333333     0.682700000000     0          
O        O      0.263533333333     0.736433333333     0.676500000000     0          
O        O      0.222633333333     0.993633333333     0.706700000000     0          
O        O      0.313000000000     0.823166666667     0.250000000000     0          
O        O      0.256433333333     0.743533333333     0.250000000000     0          
O        O      0.218633333333     0.898200000000     0.540800000000     0          
T        Si     0.194566666667     0.889366666667     0.586900000000     0          
T        Si     0.221566666667     0.692366666667     0.671800000000     0          
T        Si     0.195466666667     0.890033333333     0.750000000000     0          
T        Si     0.000000000000     0.916866666667     0.500000000000     0          
O        O      0.038766666667     0.961233333333     0.486400000000     0          
O        O      0.115800000000     0.991833333333     0.377300000000     0          
O        O      0.186133333333     0.705600000000     0.419100000000     0          
O        O      0.138033333333     0.735700000000     0.397000000000     0          
O        O      0.150833333333     0.849166666667     0.317300000000     0          
O        O      0.069800000000     0.806233333333     0.323500000000     0          
O        O      0.110700000000     0.771000000000     0.293300000000     0          
O        O      0.114700000000     0.679566666667     0.459200000000     0          
T        Si     0.138766666667     0.694800000000     0.413100000000     0          
T        Si     0.111766666667     0.804133333333     0.328200000000     0          
T        Si     0.137866666667     0.694566666667     0.250000000000     0          
O        O      0.077533333333     0.705433333333     0.986400000000     0          
O        O      0.123966666667     0.782466666667     0.877300000000     0          
O        O      0.147200000000     0.852800000000     0.919100000000     0          
O        O      0.069000000000     0.804700000000     0.897000000000     0          
O        O      0.301666666667     0.817500000000     0.817300000000     0          
O        O      0.263566666667     0.736466666667     0.823500000000     0          
O        O      0.006366666667     0.777366666667     0.793300000000     0          
O        O      0.101800000000     0.781366666667     0.959200000000     0          
T        Si     0.110633333333     0.805433333333     0.913100000000     0          
T        Si     0.307633333333     0.778433333333     0.828200000000     0          
T        Si     0.109966666667     0.804533333333     0.750000000000     0          
O        O      0.038766666667     0.744200000000     0.486400000000     0          
O        O      0.008166666667     0.790633333333     0.377300000000     0          
O        O      0.294400000000     0.813866666667     0.419100000000     0          
O        O      0.264300000000     0.735666666667     0.397000000000     0          
O        O      0.150833333333     0.968333333333     0.317300000000     0          
O        O      0.193766666667     0.930233333333     0.323500000000     0          
O        O      0.229000000000     0.673033333333     0.293300000000     0          
O        O      0.320433333333     0.768466666667     0.459200000000     0          
T        Si     0.305200000000     0.777300000000     0.413100000000     0          
T        Si     0.195866666667     0.974300000000     0.328200000000     0          
T        Si     0.305433333333     0.776633333333     0.250000000000     0          
O        O      0.294566666667     0.705433333333     0.986400000000     0          
O        O      0.217533333333     0.674833333333     0.877300000000     0          
O        O      0.147200000000     0.961066666667     0.919100000000     0          
O        O      0.195300000000     0.930966666667     0.897000000000     0          
O        O      0.182500000000     0.817500000000     0.817300000000     0          
O        O      0.263533333333     0.860433333333     0.823500000000     0          
O        O      0.222633333333     0.895666666667     0.793300000000     0          
O        O      0.218633333333     0.987100000000     0.959200000000     0          
T        Si     0.194566666667     0.971866666667     0.913100000000     0          
T        Si     0.221566666667     0.862533333333     0.828200000000     0          
T        Si     0.195466666667     0.972100000000     0.750000000000     0          
O        O      0.255800000000     0.961233333333     0.486400000000     0          
O        O      0.209366666667     0.884200000000     0.377300000000     0          
O        O      0.186133333333     0.813866666667     0.419100000000     0          
O        O      0.264333333333     0.861966666667     0.397000000000     0          
O        O      0.031666666667     0.849166666667     0.317300000000     0          
O        O      0.069766666667     0.930200000000     0.323500000000     0          
O        O      0.326966666667     0.889300000000     0.293300000000     0          
O        O      0.231533333333     0.885300000000     0.459200000000     0          
T        Si     0.222700000000     0.861233333333     0.413100000000     0          
T        Si     0.025700000000     0.888233333333     0.328200000000     0          
T        Si     0.223366666667     0.862133333333     0.250000000000     0          
O        O      0.294566666667     0.922466666667     0.986400000000     0          
O        O      0.325166666667     0.876033333333     0.877300000000     0          
O        O      0.038933333333     0.852800000000     0.919100000000     0          
O        O      0.069033333333     0.931000000000     0.897000000000     0          
O        O      0.182500000000     0.698333333333     0.817300000000     0          
O        O      0.139566666667     0.736433333333     0.823500000000     0          
O        O      0.104333333333     0.993633333333     0.793300000000     0          
O        O      0.012900000000     0.898200000000     0.959200000000     0          
T        Si     0.028133333333     0.889366666667     0.913100000000     0          
T        Si     0.137466666667     0.692366666667     0.828200000000     0          
T        Si     0.027900000000     0.890033333333     0.750000000000     0          
O        O      0.325166666667     0.782466666667     0.877300000000     0          
O        O      0.104333333333     0.777366666667     0.793300000000     0          
O        O      0.012900000000     0.781366666667     0.959200000000     0          
T        Si     0.028133333333     0.805433333333     0.913100000000     0          
T        Si     0.137466666667     0.778433333333     0.828200000000     0          
T        Si     0.250200000000     0.666666666667     0.000000000000     0          
O        O      0.209366666667     0.991833333333     0.377300000000     0          
O        O      0.326966666667     0.771000000000     0.293300000000     0          
O        O      0.231533333333     0.679566666667     0.459200000000     0          
T        Si     0.222700000000     0.694800000000     0.413100000000     0          
T        Si     0.025700000000     0.804133333333     0.328200000000     0          
T        Si     0.250200000000     0.916866666667     0.500000000000     0          
O        O      0.217533333333     0.876033333333     0.877300000000     0          
O        O      0.222633333333     0.993633333333     0.793300000000     0          
O        O      0.218633333333     0.898200000000     0.959200000000     0          
T        Si     0.194566666667     0.889366666667     0.913100000000     0          
T        Si     0.221566666667     0.692366666667     0.828200000000     0          
T        Si     0.000000000000     0.916866666667     0.000000000000     0          
O        O      0.008166666667     0.884200000000     0.377300000000     0          
O        O      0.229000000000     0.889300000000     0.293300000000     0          
O        O      0.320433333333     0.885300000000     0.459200000000     0          
T        Si     0.305200000000     0.861233333333     0.413100000000     0          
T        Si     0.195866666667     0.888233333333     0.328200000000     0          
T        Si     0.083133333333     0.666666666667     0.500000000000     0          
O        O      0.123966666667     0.674833333333     0.877300000000     0          
O        O      0.006366666667     0.895666666667     0.793300000000     0          
O        O      0.101800000000     0.987100000000     0.959200000000     0          
T        Si     0.110633333333     0.971866666667     0.913100000000     0          
T        Si     0.307633333333     0.862533333333     0.828200000000     0          
T        Si     0.083133333333     0.749800000000     0.000000000000     0          
O        O      0.115800000000     0.790633333333     0.377300000000     0          
O        O      0.110700000000     0.673033333333     0.293300000000     0          
O        O      0.114700000000     0.768466666667     0.459200000000     0          
T        Si     0.138766666667     0.777300000000     0.413100000000     0          
T        Si     0.111766666667     0.974300000000     0.328200000000     0          
T        Si     0.000000000000     0.749800000000     0.500000000000     0          
O        O      0.217533333333     0.674833333333     0.622700000000     0          
O        O      0.222633333333     0.895666666667     0.706700000000     0          
O        O      0.218633333333     0.987100000000     0.540800000000     0          
T        Si     0.194566666667     0.971866666667     0.586900000000     0          
T        Si     0.221566666667     0.862533333333     0.671800000000     0          
O        O      0.209366666667     0.884200000000     0.122700000000     0          
O        O      0.326966666667     0.889300000000     0.206700000000     0          
O        O      0.231533333333     0.885300000000     0.040800000000     0          
T        Si     0.222700000000     0.861233333333     0.086900000000     0          
T        Si     0.025700000000     0.888233333333     0.171800000000     0          
O        O      0.325166666667     0.876033333333     0.622700000000     0          
O        O      0.104333333333     0.993633333333     0.706700000000     0          
O        O      0.012900000000     0.898200000000     0.540800000000     0          
T        Si     0.028133333333     0.889366666667     0.586900000000     0          
T        Si     0.137466666667     0.692366666667     0.671800000000     0          
O        O      0.115800000000     0.991833333333     0.122700000000     0          
O        O      0.110700000000     0.771000000000     0.206700000000     0          
O        O      0.114700000000     0.679566666667     0.040800000000     0          
T        Si     0.138766666667     0.694800000000     0.086900000000     0          
T        Si     0.111766666667     0.804133333333     0.171800000000     0          
O        O      0.123966666667     0.782466666667     0.622700000000     0          
O        O      0.006366666667     0.777366666667     0.706700000000     0          
O        O      0.101800000000     0.781366666667     0.540800000000     0          
T        Si     0.110633333333     0.805433333333     0.586900000000     0          
T        Si     0.307633333333     0.778433333333     0.671800000000     0          
O        O      0.008166666667     0.790633333333     0.122700000000     0          
O        O      0.229000000000     0.673033333333     0.206700000000     0          
O        O      0.320433333333     0.768466666667     0.040800000000     0          
T        Si     0.305200000000     0.777300000000     0.086900000000     0          
T        Si     0.195866666667     0.974300000000     0.171800000000     0          
O        O      0.372100000000     0.294566666667     0.013600000000     0          
O        O      0.341500000000     0.217533333333     0.122700000000     0          
O        O      0.627733333333     0.147200000000     0.080900000000     0          
O        O      0.597633333333     0.195300000000     0.103000000000     0          
O        O      0.484166666667     0.182500000000     0.182700000000     0          
O        O      0.527100000000     0.263533333333     0.176500000000     0          
O        O      0.562333333333     0.222633333333     0.206700000000     0          
O        O      0.489833333333     0.313000000000     0.750000000000     0          
O        O      0.512900000000     0.256433333333     0.750000000000     0          
O        O      0.653766666667     0.218633333333     0.040800000000     0          
T        Si     0.638533333333     0.194566666667     0.086900000000     0          
T        Si     0.529200000000     0.221566666667     0.171800000000     0          
T        Si     0.638766666667     0.195466666667     0.250000000000     0          
T        Si     0.416466666667     0.000000000000     0.000000000000     0          
O        O      0.410866666667     0.038766666667     0.513600000000     0          
O        O      0.457300000000     0.008166666667     0.622700000000     0          
O        O      0.480533333333     0.294400000000     0.580900000000     0          
O        O      0.402333333333     0.264300000000     0.603000000000     0          
O        O      0.635000000000     0.150833333333     0.682700000000     0          
O        O      0.596900000000     0.193766666667     0.676500000000     0          
O        O      0.339700000000     0.229000000000     0.706700000000     0          
O        O      0.510166666667     0.156500000000     0.250000000000     0          
O        O      0.589800000000     0.179566666667     0.250000000000     0          
O        O      0.435133333333     0.320433333333     0.540800000000     0          
T        Si     0.443966666667     0.305200000000     0.586900000000     0          
T        Si     0.640966666667     0.195866666667     0.671800000000     0          
T        Si     0.443300000000     0.305433333333     0.750000000000     0          
T        Si     0.416466666667     0.083133333333     0.500000000000     0          
O        O      0.372100000000     0.077533333333     0.013600000000     0          
O        O      0.449133333333     0.123966666667     0.122700000000     0          
O        O      0.519466666667     0.147200000000     0.080900000000     0          
O        O      0.471366666667     0.069000000000     0.103000000000     0          
O        O      0.484166666667     0.301666666667     0.182700000000     0          
O        O      0.403133333333     0.263566666667     0.176500000000     0          
O        O      0.444033333333     0.006366666667     0.206700000000     0          
O        O      0.353666666667     0.176833333333     0.750000000000     0          
O        O      0.410233333333     0.256466666667     0.750000000000     0          
O        O      0.448033333333     0.101800000000     0.040800000000     0          
T        Si     0.472100000000     0.110633333333     0.086900000000     0          
T        Si     0.445100000000     0.307633333333     0.171800000000     0          
T        Si     0.471200000000     0.109966666667     0.250000000000     0          
T        Si     0.333333333333     0.083133333333     0.000000000000     0          
O        O      0.627900000000     0.038766666667     0.513600000000     0          
O        O      0.658500000000     0.115800000000     0.622700000000     0          
O        O      0.372266666667     0.186133333333     0.580900000000     0          
O        O      0.402366666667     0.138033333333     0.603000000000     0          
O        O      0.515833333333     0.150833333333     0.682700000000     0          
O        O      0.472900000000     0.069800000000     0.676500000000     0          
O        O      0.437666666667     0.110700000000     0.706700000000     0          
O        O      0.510166666667     0.020333333333     0.250000000000     0          
O        O      0.487100000000     0.076900000000     0.250000000000     0          
O        O      0.346233333333     0.114700000000     0.540800000000     0          
T        Si     0.361466666667     0.138766666667     0.586900000000     0          
T        Si     0.470800000000     0.111766666667     0.671800000000     0          
T        Si     0.361233333333     0.137866666667     0.750000000000     0          
T        Si     0.583533333333     0.000000000000     0.500000000000     0          
O        O      0.589133333333     0.294566666667     0.013600000000     0          
O        O      0.542700000000     0.325166666667     0.122700000000     0          
O        O      0.519466666667     0.038933333333     0.080900000000     0          
O        O      0.597666666667     0.069033333333     0.103000000000     0          
O        O      0.365000000000     0.182500000000     0.182700000000     0          
O        O      0.403100000000     0.139566666667     0.176500000000     0          
O        O      0.660300000000     0.104333333333     0.206700000000     0          
O        O      0.489833333333     0.176833333333     0.750000000000     0          
O        O      0.410200000000     0.153766666667     0.750000000000     0          
O        O      0.564866666667     0.012900000000     0.040800000000     0          
T        Si     0.556033333333     0.028133333333     0.086900000000     0          
T        Si     0.359033333333     0.137466666667     0.171800000000     0          
T        Si     0.556700000000     0.027900000000     0.250000000000     0          
T        Si     0.583533333333     0.250200000000     0.000000000000     0          
O        O      0.627900000000     0.255800000000     0.513600000000     0          
O        O      0.550866666667     0.209366666667     0.622700000000     0          
O        O      0.480533333333     0.186133333333     0.580900000000     0          
O        O      0.528633333333     0.264333333333     0.603000000000     0          
O        O      0.515833333333     0.031666666667     0.682700000000     0          
O        O      0.596866666667     0.069766666667     0.676500000000     0          
O        O      0.555966666667     0.326966666667     0.706700000000     0          
O        O      0.646333333333     0.156500000000     0.250000000000     0          
O        O      0.589766666667     0.076866666667     0.250000000000     0          
O        O      0.551966666667     0.231533333333     0.540800000000     0          
T        Si     0.527900000000     0.222700000000     0.586900000000     0          
T        Si     0.554900000000     0.025700000000     0.671800000000     0          
T        Si     0.528800000000     0.223366666667     0.750000000000     0          
T        Si     0.333333333333     0.250200000000     0.500000000000     0          
O        O      0.372100000000     0.294566666667     0.486400000000     0          
O        O      0.449133333333     0.325166666667     0.377300000000     0          
O        O      0.519466666667     0.038933333333     0.419100000000     0          
O        O      0.471366666667     0.069033333333     0.397000000000     0          
O        O      0.484166666667     0.182500000000     0.317300000000     0          
O        O      0.403133333333     0.139566666667     0.323500000000     0          
O        O      0.444033333333     0.104333333333     0.293300000000     0          
O        O      0.448033333333     0.012900000000     0.459200000000     0          
T        Si     0.472100000000     0.028133333333     0.413100000000     0          
T        Si     0.445100000000     0.137466666667     0.328200000000     0          
T        Si     0.471200000000     0.027900000000     0.250000000000     0          
O        O      0.410866666667     0.038766666667     0.986400000000     0          
O        O      0.457300000000     0.115800000000     0.877300000000     0          
O        O      0.480533333333     0.186133333333     0.919100000000     0          
O        O      0.402333333333     0.138033333333     0.897000000000     0          
O        O      0.635000000000     0.150833333333     0.817300000000     0          
O        O      0.596900000000     0.069800000000     0.823500000000     0          
O        O      0.339700000000     0.110700000000     0.793300000000     0          
O        O      0.435133333333     0.114700000000     0.959200000000     0          
T        Si     0.443966666667     0.138766666667     0.913100000000     0          
T        Si     0.640966666667     0.111766666667     0.828200000000     0          
T        Si     0.443300000000     0.137866666667     0.750000000000     0          
O        O      0.372100000000     0.077533333333     0.486400000000     0          
O        O      0.341500000000     0.123966666667     0.377300000000     0          
O        O      0.627733333333     0.147200000000     0.419100000000     0          
O        O      0.597633333333     0.069000000000     0.397000000000     0          
O        O      0.484166666667     0.301666666667     0.317300000000     0          
O        O      0.527100000000     0.263566666667     0.323500000000     0          
O        O      0.562333333333     0.006366666667     0.293300000000     0          
O        O      0.653766666667     0.101800000000     0.459200000000     0          
T        Si     0.638533333333     0.110633333333     0.413100000000     0          
T        Si     0.529200000000     0.307633333333     0.328200000000     0          
T        Si     0.638766666667     0.109966666667     0.250000000000     0          
O        O      0.627900000000     0.038766666667     0.986400000000     0          
O        O      0.550866666667     0.008166666667     0.877300000000     0          
O        O      0.480533333333     0.294400000000     0.919100000000     0          
O        O      0.528633333333     0.264300000000     0.897000000000     0          
O        O      0.515833333333     0.150833333333     0.817300000000     0          
O        O      0.596866666667     0.193766666667     0.823500000000     0          
O        O      0.555966666667     0.229000000000     0.793300000000     0          
O        O      0.551966666667     0.320433333333     0.959200000000     0          
T        Si     0.527900000000     0.305200000000     0.913100000000     0          
T        Si     0.554900000000     0.195866666667     0.828200000000     0          
T        Si     0.528800000000     0.305433333333     0.750000000000     0          
O        O      0.589133333333     0.294566666667     0.486400000000     0          
O        O      0.542700000000     0.217533333333     0.377300000000     0          
O        O      0.519466666667     0.147200000000     0.419100000000     0          
O        O      0.597666666667     0.195300000000     0.397000000000     0          
O        O      0.365000000000     0.182500000000     0.317300000000     0          
O        O      0.403100000000     0.263533333333     0.323500000000     0          
O        O      0.660300000000     0.222633333333     0.293300000000     0          
O        O      0.564866666667     0.218633333333     0.459200000000     0          
T        Si     0.556033333333     0.194566666667     0.413100000000     0          
T        Si     0.359033333333     0.221566666667     0.328200000000     0          
T        Si     0.556700000000     0.195466666667     0.250000000000     0          
O        O      0.627900000000     0.255800000000     0.986400000000     0          
O        O      0.658500000000     0.209366666667     0.877300000000     0          
O        O      0.372266666667     0.186133333333     0.919100000000     0          
O        O      0.402366666667     0.264333333333     0.897000000000     0          
O        O      0.515833333333     0.031666666667     0.817300000000     0          
O        O      0.472900000000     0.069766666667     0.823500000000     0          
O        O      0.437666666667     0.326966666667     0.793300000000     0          
O        O      0.346233333333     0.231533333333     0.959200000000     0          
T        Si     0.361466666667     0.222700000000     0.913100000000     0          
T        Si     0.470800000000     0.025700000000     0.828200000000     0          
T        Si     0.361233333333     0.223366666667     0.750000000000     0          
O        O      0.658500000000     0.115800000000     0.877300000000     0          
O        O      0.437666666667     0.110700000000     0.793300000000     0          
O        O      0.346233333333     0.114700000000     0.959200000000     0          
T        Si     0.361466666667     0.138766666667     0.913100000000     0          
T        Si     0.470800000000     0.111766666667     0.828200000000     0          
T        Si     0.583533333333     0.000000000000     0.000000000000     0          
O        O      0.542700000000     0.325166666667     0.377300000000     0          
O        O      0.660300000000     0.104333333333     0.293300000000     0          
O        O      0.564866666667     0.012900000000     0.459200000000     0          
T        Si     0.556033333333     0.028133333333     0.413100000000     0          
T        Si     0.359033333333     0.137466666667     0.328200000000     0          
T        Si     0.583533333333     0.250200000000     0.500000000000     0          
O        O      0.550866666667     0.209366666667     0.877300000000     0          
O        O      0.555966666667     0.326966666667     0.793300000000     0          
O        O      0.551966666667     0.231533333333     0.959200000000     0          
T        Si     0.527900000000     0.222700000000     0.913100000000     0          
T        Si     0.554900000000     0.025700000000     0.828200000000     0          
T        Si     0.333333333333     0.250200000000     0.000000000000     0          
O        O      0.341500000000     0.217533333333     0.377300000000     0          
O        O      0.562333333333     0.222633333333     0.293300000000     0          
O        O      0.653766666667     0.218633333333     0.459200000000     0          
T        Si     0.638533333333     0.194566666667     0.413100000000     0          
T        Si     0.529200000000     0.221566666667     0.328200000000     0          
T        Si     0.416466666667     0.000000000000     0.500000000000     0          
O        O      0.457300000000     0.008166666667     0.877300000000     0          
O        O      0.339700000000     0.229000000000     0.793300000000     0          
O        O      0.435133333333     0.320433333333     0.959200000000     0          
T        Si     0.443966666667     0.305200000000     0.913100000000     0          
T        Si     0.640966666667     0.195866666667     0.828200000000     0          
T        Si     0.416466666667     0.083133333333     0.000000000000     0          
O        O      0.449133333333     0.123966666667     0.377300000000     0          
O        O      0.444033333333     0.006366666667     0.293300000000     0          
O        O      0.448033333333     0.101800000000     0.459200000000     0          
T        Si     0.472100000000     0.110633333333     0.413100000000     0          
T        Si     0.445100000000     0.307633333333     0.328200000000     0          
T        Si     0.333333333333     0.083133333333     0.500000000000     0          
O        O      0.550866666667     0.008166666667     0.622700000000     0          
O        O      0.555966666667     0.229000000000     0.706700000000     0          
O        O      0.551966666667     0.320433333333     0.540800000000     0          
T        Si     0.527900000000     0.305200000000     0.586900000000     0          
T        Si     0.554900000000     0.195866666667     0.671800000000     0          
O        O      0.542700000000     0.217533333333     0.122700000000     0          
O        O      0.660300000000     0.222633333333     0.206700000000     0          
O        O      0.564866666667     0.218633333333     0.040800000000     0          
T        Si     0.556033333333     0.194566666667     0.086900000000     0          
T        Si     0.359033333333     0.221566666667     0.171800000000     0          
O        O      0.658500000000     0.209366666667     0.622700000000     0          
O        O      0.437666666667     0.326966666667     0.706700000000     0          
O        O      0.346233333333     0.231533333333     0.540800000000     0          
T        Si     0.361466666667     0.222700000000     0.586900000000     0          
T        Si     0.470800000000     0.025700000000     0.671800000000     0          
O        O      0.449133333333     0.325166666667     0.122700000000     0          
O        O      0.444033333333     0.104333333333     0.206700000000     0          
O        O      0.448033333333     0.012900000000     0.040800000000     0          
T        Si     0.472100000000     0.028133333333     0.086900000000     0          
T        Si     0.445100000000     0.137466666667     0.171800000000     0          
O        O      0.457300000000     0.115800000000     0.622700000000     0          
O        O      0.339700000000     0.110700000000     0.706700000000     0          
O        O      0.435133333333     0.114700000000     0.540800000000     0          
T        Si     0.443966666667     0.138766666667     0.586900000000     0          
T        Si     0.640966666667     0.111766666667     0.671800000000     0          
O        O      0.341500000000     0.123966666667     0.122700000000     0          
O        O      0.562333333333     0.006366666667     0.206700000000     0          
O        O      0.653766666667     0.101800000000     0.040800000000     0          
T        Si     0.638533333333     0.110633333333     0.086900000000     0          
T        Si     0.529200000000     0.307633333333     0.171800000000     0          
O        O      0.372100000000     0.627900000000     0.013600000000     0          
O        O      0.341500000000     0.550866666667     0.122700000000     0          
O        O      0.627733333333     0.480533333333     0.080900000000     0          
O        O      0.597633333333     0.528633333333     0.103000000000     0          
O        O      0.484166666667     0.515833333333     0.182700000000     0          
O        O      0.527100000000     0.596866666667     0.176500000000     0          
O        O      0.562333333333     0.555966666667     0.206700000000     0          
O        O      0.489833333333     0.646333333333     0.750000000000     0          
O        O      0.512900000000     0.589766666667     0.750000000000     0          
O        O      0.653766666667     0.551966666667     0.040800000000     0          
T        Si     0.638533333333     0.527900000000     0.086900000000     0          
T        Si     0.529200000000     0.554900000000     0.171800000000     0          
T        Si     0.638766666667     0.528800000000     0.250000000000     0          
T        Si     0.416466666667     0.333333333333     0.000000000000     0          
O        O      0.410866666667     0.372100000000     0.513600000000     0          
O        O      0.457300000000     0.341500000000     0.622700000000     0          
O        O      0.480533333333     0.627733333333     0.580900000000     0          
O        O      0.402333333333     0.597633333333     0.603000000000     0          
O        O      0.635000000000     0.484166666667     0.682700000000     0          
O        O      0.596900000000     0.527100000000     0.676500000000     0          
O        O      0.339700000000     0.562333333333     0.706700000000     0          
O        O      0.510166666667     0.489833333333     0.250000000000     0          
O        O      0.589800000000     0.512900000000     0.250000000000     0          
O        O      0.435133333333     0.653766666667     0.540800000000     0          
T        Si     0.443966666667     0.638533333333     0.586900000000     0          
T        Si     0.640966666667     0.529200000000     0.671800000000     0          
T        Si     0.443300000000     0.638766666667     0.750000000000     0          
T        Si     0.416466666667     0.416466666667     0.500000000000     0          
O        O      0.372100000000     0.410866666667     0.013600000000     0          
O        O      0.449133333333     0.457300000000     0.122700000000     0          
O        O      0.519466666667     0.480533333333     0.080900000000     0          
O        O      0.471366666667     0.402333333333     0.103000000000     0          
O        O      0.484166666667     0.635000000000     0.182700000000     0          
O        O      0.403133333333     0.596900000000     0.176500000000     0          
O        O      0.444033333333     0.339700000000     0.206700000000     0          
O        O      0.353666666667     0.510166666667     0.750000000000     0          
O        O      0.410233333333     0.589800000000     0.750000000000     0          
O        O      0.448033333333     0.435133333333     0.040800000000     0          
T        Si     0.472100000000     0.443966666667     0.086900000000     0          
T        Si     0.445100000000     0.640966666667     0.171800000000     0          
T        Si     0.471200000000     0.443300000000     0.250000000000     0          
T        Si     0.333333333333     0.416466666667     0.000000000000     0          
O        O      0.627900000000     0.372100000000     0.513600000000     0          
O        O      0.658500000000     0.449133333333     0.622700000000     0          
O        O      0.372266666667     0.519466666667     0.580900000000     0          
O        O      0.402366666667     0.471366666667     0.603000000000     0          
O        O      0.515833333333     0.484166666667     0.682700000000     0          
O        O      0.472900000000     0.403133333333     0.676500000000     0          
O        O      0.437666666667     0.444033333333     0.706700000000     0          
O        O      0.510166666667     0.353666666667     0.250000000000     0          
O        O      0.487100000000     0.410233333333     0.250000000000     0          
O        O      0.346233333333     0.448033333333     0.540800000000     0          
T        Si     0.361466666667     0.472100000000     0.586900000000     0          
T        Si     0.470800000000     0.445100000000     0.671800000000     0          
T        Si     0.361233333333     0.471200000000     0.750000000000     0          
T        Si     0.583533333333     0.333333333333     0.500000000000     0          
O        O      0.589133333333     0.627900000000     0.013600000000     0          
O        O      0.542700000000     0.658500000000     0.122700000000     0          
O        O      0.519466666667     0.372266666667     0.080900000000     0          
O        O      0.597666666667     0.402366666667     0.103000000000     0          
O        O      0.365000000000     0.515833333333     0.182700000000     0          
O        O      0.403100000000     0.472900000000     0.176500000000     0          
O        O      0.660300000000     0.437666666667     0.206700000000     0          
O        O      0.489833333333     0.510166666667     0.750000000000     0          
O        O      0.410200000000     0.487100000000     0.750000000000     0          
O        O      0.564866666667     0.346233333333     0.040800000000     0          
T        Si     0.556033333333     0.361466666667     0.086900000000     0          
T        Si     0.359033333333     0.470800000000     0.171800000000     0          
T        Si     0.556700000000     0.361233333333     0.250000000000     0          
T        Si     0.583533333333     0.583533333333     0.000000000000     0          
O        O      0.627900000000     0.589133333333     0.513600000000     0          
O        O      0.550866666667     0.542700000000     0.622700000000     0          
O        O      0.480533333333     0.519466666667     0.580900000000     0          
O        O      0.528633333333     0.597666666667     0.603000000000     0          
O        O      0.515833333333     0.365000000000     0.682700000000     0          
O        O      0.596866666667     0.403100000000     0.676500000000     0          
O        O      0.555966666667     0.660300000000     0.706700000000     0          
O        O      0.646333333333     0.489833333333     0.250000000000     0          
O        O      0.589766666667     0.410200000000     0.250000000000     0          
O        O      0.551966666667     0.564866666667     0.540800000000     0          
T        Si     0.527900000000     0.556033333333     0.586900000000     0          
T        Si     0.554900000000     0.359033333333     0.671800000000     0          
T        Si     0.528800000000     0.556700000000     0.750000000000     0          
T        Si     0.333333333333     0.583533333333     0.500000000000     0          
O        O      0.372100000000     0.627900000000     0.486400000000     0          
O        O      0.449133333333     0.658500000000     0.377300000000     0          
O        O      0.519466666667     0.372266666667     0.419100000000     0          
O        O      0.471366666667     0.402366666667     0.397000000000     0          
O        O      0.484166666667     0.515833333333     0.317300000000     0          
O        O      0.403133333333     0.472900000000     0.323500000000     0          
O        O      0.444033333333     0.437666666667     0.293300000000     0          
O        O      0.448033333333     0.346233333333     0.459200000000     0          
T        Si     0.472100000000     0.361466666667     0.413100000000     0          
T        Si     0.445100000000     0.470800000000     0.328200000000     0          
T        Si     0.471200000000     0.361233333333     0.250000000000     0          
O        O      0.410866666667     0.372100000000     0.986400000000     0          
O        O      0.457300000000     0.449133333333     0.877300000000     0          
O        O      0.480533333333     0.519466666667     0.919100000000     0          
O        O      0.402333333333     0.471366666667     0.897000000000     0          
O        O      0.635000000000     0.484166666667     0.817300000000     0          
O        O      0.596900000000     0.403133333333     0.823500000000     0          
O        O      0.339700000000     0.444033333333     0.793300000000     0          
O        O      0.435133333333     0.448033333333     0.959200000000     0          
T        Si     0.443966666667     0.472100000000     0.913100000000     0          
T        Si     0.640966666667     0.445100000000     0.828200000000     0          
T        Si     0.443300000000     0.471200000000     0.750000000000     0          
O        O      0.372100000000     0.410866666667     0.486400000000     0          
O        O      0.341500000000     0.457300000000     0.377300000000     0          
O        O      0.627733333333     0.480533333333     0.419100000000     0          
O        O      0.597633333333     0.402333333333     0.397000000000     0          
O        O      0.484166666667     0.635000000000     0.317300000000     0          
O        O      0.527100000000     0.596900000000     0.323500000000     0          
O        O      0.562333333333     0.339700000000     0.293300000000     0          
O        O      0.653766666667     0.435133333333     0.459200000000     0          
T        Si     0.638533333333     0.443966666667     0.413100000000     0          
T        Si     0.529200000000     0.640966666667     0.328200000000     0          
T        Si     0.638766666667     0.443300000000     0.250000000000     0          
O        O      0.627900000000     0.372100000000     0.986400000000     0          
O        O      0.550866666667     0.341500000000     0.877300000000     0          
O        O      0.480533333333     0.627733333333     0.919100000000     0          
O        O      0.528633333333     0.597633333333     0.897000000000     0          
O        O      0.515833333333     0.484166666667     0.817300000000     0          
O        O      0.596866666667     0.527100000000     0.823500000000     0          
O        O      0.555966666667     0.562333333333     0.793300000000     0          
O        O      0.551966666667     0.653766666667     0.959200000000     0          
T        Si     0.527900000000     0.638533333333     0.913100000000     0          
T        Si     0.554900000000     0.529200000000     0.828200000000     0          
T        Si     0.528800000000     0.638766666667     0.750000000000     0          
O        O      0.589133333333     0.627900000000     0.486400000000     0          
O        O      0.542700000000     0.550866666667     0.377300000000     0          
O        O      0.519466666667     0.480533333333     0.419100000000     0          
O        O      0.597666666667     0.528633333333     0.397000000000     0          
O        O      0.365000000000     0.515833333333     0.317300000000     0          
O        O      0.403100000000     0.596866666667     0.323500000000     0          
O        O      0.660300000000     0.555966666667     0.293300000000     0          
O        O      0.564866666667     0.551966666667     0.459200000000     0          
T        Si     0.556033333333     0.527900000000     0.413100000000     0          
T        Si     0.359033333333     0.554900000000     0.328200000000     0          
T        Si     0.556700000000     0.528800000000     0.250000000000     0          
O        O      0.627900000000     0.589133333333     0.986400000000     0          
O        O      0.658500000000     0.542700000000     0.877300000000     0          
O        O      0.372266666667     0.519466666667     0.919100000000     0          
O        O      0.402366666667     0.597666666667     0.897000000000     0          
O        O      0.515833333333     0.365000000000     0.817300000000     0          
O        O      0.472900000000     0.403100000000     0.823500000000     0          
O        O      0.437666666667     0.660300000000     0.793300000000     0          
O        O      0.346233333333     0.564866666667     0.959200000000     0          
T        Si     0.361466666667     0.556033333333     0.913100000000     0          
T        Si     0.470800000000     0.359033333333     0.828200000000     0          
T        Si     0.361233333333     0.556700000000     0.750000000000     0          
O        O      0.658500000000     0.449133333333     0.877300000000     0          
O        O      0.437666666667     0.444033333333     0.793300000000     0          
O        O      0.346233333333     0.448033333333     0.959200000000     0          
T        Si     0.361466666667     0.472100000000     0.913100000000     0          
T        Si     0.470800000000     0.445100000000     0.828200000000     0          
T        Si     0.583533333333     0.333333333333     0.000000000000     0          
O        O      0.542700000000     0.658500000000     0.377300000000     0          
O        O      0.660300000000     0.437666666667     0.293300000000     0          
O        O      0.564866666667     0.346233333333     0.459200000000     0          
T        Si     0.556033333333     0.361466666667     0.413100000000     0          
T        Si     0.359033333333     0.470800000000     0.328200000000     0          
T        Si     0.583533333333     0.583533333333     0.500000000000     0          
O        O      0.550866666667     0.542700000000     0.877300000000     0          
O        O      0.555966666667     0.660300000000     0.793300000000     0          
O        O      0.551966666667     0.564866666667     0.959200000000     0          
T        Si     0.527900000000     0.556033333333     0.913100000000     0          
T        Si     0.554900000000     0.359033333333     0.828200000000     0          
T        Si     0.333333333333     0.583533333333     0.000000000000     0          
O        O      0.341500000000     0.550866666667     0.377300000000     0          
O        O      0.562333333333     0.555966666667     0.293300000000     0          
O        O      0.653766666667     0.551966666667     0.459200000000     0          
T        Si     0.638533333333     0.527900000000     0.413100000000     0          
T        Si     0.529200000000     0.554900000000     0.328200000000     0          
T        Si     0.416466666667     0.333333333333     0.500000000000     0          
O        O      0.457300000000     0.341500000000     0.877300000000     0          
O        O      0.339700000000     0.562333333333     0.793300000000     0          
O        O      0.435133333333     0.653766666667     0.959200000000     0          
T        Si     0.443966666667     0.638533333333     0.913100000000     0          
T        Si     0.640966666667     0.529200000000     0.828200000000     0          
T        Si     0.416466666667     0.416466666667     0.000000000000     0          
O        O      0.449133333333     0.457300000000     0.377300000000     0          
O        O      0.444033333333     0.339700000000     0.293300000000     0          
O        O      0.448033333333     0.435133333333     0.459200000000     0          
T        Si     0.472100000000     0.443966666667     0.413100000000     0          
T        Si     0.445100000000     0.640966666667     0.328200000000     0          
T        Si     0.333333333333     0.416466666667     0.500000000000     0          
O        O      0.550866666667     0.341500000000     0.622700000000     0          
O        O      0.555966666667     0.562333333333     0.706700000000     0          
O        O      0.551966666667     0.653766666667     0.540800000000     0          
T        Si     0.527900000000     0.638533333333     0.586900000000     0          
T        Si     0.554900000000     0.529200000000     0.671800000000     0          
O        O      0.542700000000     0.550866666667     0.122700000000     0          
O        O      0.660300000000     0.555966666667     0.206700000000     0          
O        O      0.564866666667     0.551966666667     0.040800000000     0          
T        Si     0.556033333333     0.527900000000     0.086900000000     0          
T        Si     0.359033333333     0.554900000000     0.171800000000     0          
O        O      0.658500000000     0.542700000000     0.622700000000     0          
O        O      0.437666666667     0.660300000000     0.706700000000     0          
O        O      0.346233333333     0.564866666667     0.540800000000     0          
T        Si     0.361466666667     0.556033333333     0.586900000000     0          
T        Si     0.470800000000     0.359033333333     0.671800000000     0          
O        O      0.449133333333     0.658500000000     0.122700000000     0          
O        O      0.444033333333     0.437666666667     0.206700000000     0          
O        O      0.448033333333     0.346233333333     0.040800000000     0          
T        Si     0.472100000000     0.361466666667     0.086900000000     0          
T        Si     0.445100000000     0.470800000000     0.171800000000     0          
O        O      0.457300000000     0.449133333333     0.622700000000     0          
O        O      0.339700000000     0.444033333333     0.706700000000     0          
O        O      0.435133333333     0.448033333333     0.540800000000     0          
T        Si     0.443966666667     0.472100000000     0.586900000000     0          
T        Si     0.640966666667     0.445100000000     0.671800000000     0          
O        O      0.341500000000     0.457300000000     0.122700000000     0          
O        O      0.562333333333     0.339700000000     0.206700000000     0          
O        O      0.653766666667     0.435133333333     0.040800000000     0          
T        Si     0.638533333333     0.443966666667     0.086900000000     0          
T        Si     0.529200000000     0.640966666667     0.171800000000     0          
O        O      0.372100000000     0.961233333333     0.013600000000     0          
O        O      0.341500000000     0.884200000000     0.122700000000     0          
O        O      0.627733333333     0.813866666667     0.080900000000     0          
O        O      0.597633333333     0.861966666667     0.103000000000     0          
O        O      0.484166666667     0.849166666667     0.182700000000     0          
O        O      0.527100000000     0.930200000000     0.176500000000     0          
O        O      0.562333333333     0.889300000000     0.206700000000     0          
O        O      0.489833333333     0.979666666667     0.750000000000     0          
O        O      0.512900000000     0.923100000000     0.750000000000     0          
O        O      0.653766666667     0.885300000000     0.040800000000     0          
T        Si     0.638533333333     0.861233333333     0.086900000000     0          
T        Si     0.529200000000     0.888233333333     0.171800000000     0          
T        Si     0.638766666667     0.862133333333     0.250000000000     0          
T        Si     0.416466666667     0.666666666667     0.000000000000     0          
O        O      0.410866666667     0.705433333333     0.513600000000     0          
O        O      0.457300000000     0.674833333333     0.622700000000     0          
O        O      0.480533333333     0.961066666667     0.580900000000     0          
O        O      0.402333333333     0.930966666667     0.603000000000     0          
O        O      0.635000000000     0.817500000000     0.682700000000     0          
O        O      0.596900000000     0.860433333333     0.676500000000     0          
O        O      0.339700000000     0.895666666667     0.706700000000     0          
O        O      0.510166666667     0.823166666667     0.250000000000     0          
O        O      0.589800000000     0.846233333333     0.250000000000     0          
O        O      0.435133333333     0.987100000000     0.540800000000     0          
T        Si     0.443966666667     0.971866666667     0.586900000000     0          
T        Si     0.640966666667     0.862533333333     0.671800000000     0          
T        Si     0.443300000000     0.972100000000     0.750000000000     0          
T        Si     0.416466666667     0.749800000000     0.500000000000     0          
O        O      0.372100000000     0.744200000000     0.013600000000     0          
O        O      0.449133333333     0.790633333333     0.122700000000     0          
O        O      0.519466666667     0.813866666667     0.080900000000     0          
O        O      0.471366666667     0.735666666667     0.103000000000     0          
O        O      0.484166666667     0.968333333333     0.182700000000     0          
O        O      0.403133333333     0.930233333333     0.176500000000     0          
O        O      0.444033333333     0.673033333333     0.206700000000     0          
O        O      0.353666666667     0.843500000000     0.750000000000     0          
O        O      0.410233333333     0.923133333333     0.750000000000     0          
O        O      0.448033333333     0.768466666667     0.040800000000     0          
T        Si     0.472100000000     0.777300000000     0.086900000000     0          
T        Si     0.445100000000     0.974300000000     0.171800000000     0          
T        Si     0.471200000000     0.776633333333     0.250000000000     0          
T        Si     0.333333333333     0.749800000000     0.000000000000     0          
O        O      0.627900000000     0.705433333333     0.513600000000     0          
O        O      0.658500000000     0.782466666667     0.622700000000     0          
O        O      0.372266666667     0.852800000000     0.580900000000     0          
O        O      0.402366666667     0.804700000000     0.603000000000     0          
O        O      0.515833333333     0.817500000000     0.682700000000     0          
O        O      0.472900000000     0.736466666667     0.676500000000     0          
O        O      0.437666666667     0.777366666667     0.706700000000     0          
O        O      0.510166666667     0.687000000000     0.250000000000     0          
O        O      0.487100000000     0.743566666667     0.250000000000     0          
O        O      0.346233333333     0.781366666667     0.540800000000     0          
T        Si     0.361466666667     0.805433333333     0.586900000000     0          
T        Si     0.470800000000     0.778433333333     0.671800000000     0          
T        Si     0.361233333333     0.804533333333     0.750000000000     0          
T        Si     0.583533333333     0.666666666667     0.500000000000     0          
O        O      0.589133333333     0.961233333333     0.013600000000     0          
O        O      0.542700000000     0.991833333333     0.122700000000     0          
O        O      0.519466666667     0.705600000000     0.080900000000     0          
O        O      0.597666666667     0.735700000000     0.103000000000     0          
O        O      0.365000000000     0.849166666667     0.182700000000     0          
O        O      0.403100000000     0.806233333333     0.176500000000     0          
O        O      0.660300000000     0.771000000000     0.206700000000     0          
O        O      0.489833333333     0.843500000000     0.750000000000     0          
O        O      0.410200000000     0.820433333333     0.750000000000     0          
O        O      0.564866666667     0.679566666667     0.040800000000     0          
T        Si     0.556033333333     0.694800000000     0.086900000000     0          
T        Si     0.359033333333     0.804133333333     0.171800000000     0          
T        Si     0.556700000000     0.694566666667     0.250000000000     0          
T        Si     0.583533333333     0.916866666667     0.000000000000     0          
O        O      0.627900000000     0.922466666667     0.513600000000     0          
O        O      0.550866666667     0.876033333333     0.622700000000     0          
O        O      0.480533333333     0.852800000000     0.580900000000     0          
O        O      0.528633333333     0.931000000000     0.603000000000     0          
O        O      0.515833333333     0.698333333333     0.682700000000     0          
O        O      0.596866666667     0.736433333333     0.676500000000     0          
O        O      0.555966666667     0.993633333333     0.706700000000     0          
O        O      0.646333333333     0.823166666667     0.250000000000     0          
O        O      0.589766666667     0.743533333333     0.250000000000     0          
O        O      0.551966666667     0.898200000000     0.540800000000     0          
T        Si     0.527900000000     0.889366666667     0.586900000000     0          
T        Si     0.554900000000     0.692366666667     0.671800000000     0          
T        Si     0.528800000000     0.890033333333     0.750000000000     0          
T        Si     0.333333333333     0.916866666667     0.500000000000     0          
O        O      0.372100000000     0.961233333333     0.486400000000     0          
O        O      0.449133333333     0.991833333333     0.377300000000     0          
O        O      0.519466666667     0.705600000000     0.419100000000     0          
O        O      0.471366666667     0.735700000000     0.397000000000     0          
O        O      0.484166666667     0.849166666667     0.317300000000     0          
O        O      0.403133333333     0.806233333333     0.323500000000     0          
O        O      0.444033333333     0.771000000000     0.293300000000     0          
O        O      0.448033333333     0.679566666667     0.459200000000     0          
T        Si     0.472100000000     0.694800000000     0.413100000000     0          
T        Si     0.445100000000     0.804133333333     0.328200000000     0          
T        Si     0.471200000000     0.694566666667     0.250000000000     0          
O        O      0.410866666667     0.705433333333     0.986400000000     0          
O        O      0.457300000000     0.782466666667     0.877300000000     0          
O        O      0.480533333333     0.852800000000     0.919100000000     0          
O        O      0.402333333333     0.804700000000     0.897000000000     0          
O        O      0.635000000000     0.817500000000     0.817300000000     0          
O        O      0.596900000000     0.736466666667     0.823500000000     0          
O        O      0.339700000000     0.777366666667     0.793300000000     0          
O        O      0.435133333333     0.781366666667     0.959200000000     0          
T        Si     0.443966666667     0.805433333333     0.913100000000     0          
T        Si     0.640966666667     0.778433333333     0.828200000000     0          
T        Si     0.443300000000     0.804533333333     0.750000000000     0          
O        O      0.372100000000     0.744200000000     0.486400000000     0          
O        O      0.341500000000     0.790633333333     0.377300000000     0          
O        O      0.627733333333     0.813866666667     0.419100000000     0          
O        O      0.597633333333     0.735666666667     0.397000000000     0          
O        O      0.484166666667     0.968333333333     0.317300000000     0          
O        O      0.527100000000     0.930233333333     0.323500000000     0          
O        O      0.562333333333     0.673033333333     0.293300000000     0          
O        O      0.653766666667     0.768466666667     0.459200000000     0          
T        Si     0.638533333333     0.777300000000     0.413100000000     0          
T        Si     0.529200000000     0.974300000000     0.328200000000     0          
T        Si     0.638766666667     0.776633333333     0.250000000000     0          
O        O      0.627900000000     0.705433333333     0.986400000000     0          
O        O      0.550866666667     0.674833333333     0.877300000000     0          
O        O      0.480533333333     0.961066666667     0.919100000000     0          
O        O      0.528633333333     0.930966666667     0.897000000000     0          
O        O      0.515833333333     0.817500000000     0.817300000000     0          
O        O      0.596866666667     0.860433333333     0.823500000000     0          
O        O      0.555966666667     0.895666666667     0.793300000000     0          
O        O      0.551966666667     0.987100000000     0.959200000000     0          
T        Si     0.527900000000     0.971866666667     0.913100000000     0          
T        Si     0.554900000000     0.862533333333     0.828200000000     0          
T        Si     0.528800000000     0.972100000000     0.750000000000     0          
O        O      0.589133333333     0.961233333333     0.486400000000     0          
O        O      0.542700000000     0.884200000000     0.377300000000     0          
O        O      0.519466666667     0.813866666667     0.419100000000     0          
O        O      0.597666666667     0.861966666667     0.397000000000     0          
O        O      0.365000000000     0.849166666667     0.317300000000     0          
O        O      0.403100000000     0.930200000000     0.323500000000     0          
O        O      0.660300000000     0.889300000000     0.293300000000     0          
O        O      0.564866666667     0.885300000000     0.459200000000     0          
T        Si     0.556033333333     0.861233333333     0.413100000000     0          
T        Si     0.359033333333     0.888233333333     0.328200000000     0          
T        Si     0.556700000000     0.862133333333     0.250000000000     0          
O        O      0.627900000000     0.922466666667     0.986400000000     0          
O        O      0.658500000000     0.876033333333     0.877300000000     0          
O        O      0.372266666667     0.852800000000     0.919100000000     0          
O        O      0.402366666667     0.931000000000     0.897000000000     0          
O        O      0.515833333333     0.698333333333     0.817300000000     0          
O        O      0.472900000000     0.736433333333     0.823500000000     0          
O        O      0.437666666667     0.993633333333     0.793300000000     0          
O        O      0.346233333333     0.898200000000     0.959200000000     0          
T        Si     0.361466666667     0.889366666667     0.913100000000     0          
T        Si     0.470800000000     0.692366666667     0.828200000000     0          
T        Si     0.361233333333     0.890033333333     0.750000000000     0          
O        O      0.658500000000     0.782466666667     0.877300000000     0          
O        O      0.437666666667     0.777366666667     0.793300000000     0          
O        O      0.346233333333     0.781366666667     0.959200000000     0          
T        Si     0.361466666667     0.805433333333     0.913100000000     0          
T        Si     0.470800000000     0.778433333333     0.828200000000     0          
T        Si     0.583533333333     0.666666666667     0.000000000000     0          
O        O      0.542700000000     0.991833333333     0.377300000000     0          
O        O      0.660300000000     0.771000000000     0.293300000000     0          
O        O      0.564866666667     0.679566666667     0.459200000000     0          
T        Si     0.556033333333     0.694800000000     0.413100000000     0          
T        Si     0.359033333333     0.804133333333     0.328200000000     0          
T        Si     0.583533333333     0.916866666667     0.500000000000     0          
O        O      0.550866666667     0.876033333333     0.877300000000     0          
O        O      0.555966666667     0.993633333333     0.793300000000     0          
O        O      0.551966666667     0.898200000000     0.959200000000     0          
T        Si     0.527900000000     0.889366666667     0.913100000000     0          
T        Si     0.554900000000     0.692366666667     0.828200000000     0          
T        Si     0.333333333333     0.916866666667     0.000000000000     0          
O        O      0.341500000000     0.884200000000     0.377300000000     0          
O        O      0.562333333333     0.889300000000     0.293300000000     0          
O        O      0.653766666667     0.885300000000     0.459200000000     0          
T        Si     0.638533333333     0.861233333333     0.413100000000     0          
T        Si     0.529200000000     0.888233333333     0.328200000000     0          
T        Si     0.416466666667     0.666666666667     0.500000000000     0          
O        O      0.457300000000     0.674833333333     0.877300000000     0          
O        O      0.339700000000     0.895666666667     0.793300000000     0          
O        O      0.435133333333     0.987100000000     0.959200000000     0          
T        Si     0.443966666667     0.971866666667     0.913100000000     0          
T        Si     0.640966666667     0.862533333333     0.828200000000     0          
T        Si     0.416466666667     0.749800000000     0.000000000000     0          
O        O      0.449133333333     0.790633333333     0.377300000000     0          
O        O      0.444033333333     0.673033333333     0.293300000000     0          
O        O      0.448033333333     0.768466666667     0.459200000000     0          
T        Si     0.472100000000     0.777300000000     0.413100000000     0          
T        Si     0.445100000000     0.974300000000     0.328200000000     0          
T        Si     0.333333333333     0.749800000000     0.500000000000     0          
O        O      0.550866666667     0.674833333333     0.622700000000     0          
O        O      0.555966666667     0.895666666667     0.706700000000     0          
O        O      0.551966666667     0.987100000000     0.540800000000     0          
T        Si     0.527900000000     0.971866666667     0.586900000000     0          
T        Si     0.554900000000     0.862533333333     0.671800000000     0          
O        O      0.542700000000     0.884200000000     0.122700000000     0          
O        O      0.660300000000     0.889300000000     0.206700000000     0          
O        O      0.564866666667     0.885300000000     0.040800000000     0          
T        Si     0.556033333333     0.861233333333     0.086900000000     0          
T        Si     0.359033333333     0.888233333333     0.171800000000     0          
O        O      0.658500000000     0.876033333333     0.622700000000     0          
O        O      0.437666666667     0.993633333333     0.706700000000     0          
O        O      0.346233333333     0.898200000000     0.540800000000     0          
T        Si     0.361466666667     0.889366666667     0.586900000000     0          
T        Si     0.470800000000     0.692366666667     0.671800000000     0          
O        O      0.449133333333     0.991833333333     0.122700000000     0          
O        O      0.444033333333     0.771000000000     0.206700000000     0          
O        O      0.448033333333     0.679566666667     0.040800000000     0          
T        Si     0.472100000000     0.694800000000     0.086900000000     0          
T        Si     0.445100000000     0.804133333333     0.171800000000     0          
O        O      0.457300000000     0.782466666667     0.622700000000     0          
O        O      0.339700000000     0.777366666667     0.706700000000     0          
O        O      0.435133333333     0.781366666667     0.540800000000     0          
T        Si     0.443966666667     0.805433333333     0.586900000000     0          
T        Si     0.640966666667     0.778433333333     0.671800000000     0          
O        O      0.341500000000     0.790633333333     0.122700000000     0          
O        O      0.562333333333     0.673033333333     0.206700000000     0          
O        O      0.653766666667     0.768466666667     0.040800000000     0          
T        Si     0.638533333333     0.777300000000     0.086900000000     0          
T        Si     0.529200000000     0.974300000000     0.171800000000     0          
O        O      0.705433333333     0.294566666667     0.013600000000     0          
O        O      0.674833333333     0.217533333333     0.122700000000     0          
O        O      0.961066666667     0.147200000000     0.080900000000     0          
O        O      0.930966666667     0.195300000000     0.103000000000     0          
O        O      0.817500000000     0.182500000000     0.182700000000     0          
O        O      0.860433333333     0.263533333333     0.176500000000     0          
O        O      0.895666666667     0.222633333333     0.206700000000     0          
O        O      0.823166666667     0.313000000000     0.750000000000     0          
O        O      0.846233333333     0.256433333333     0.750000000000     0          
O        O      0.987100000000     0.218633333333     0.040800000000     0          
T        Si     0.971866666667     0.194566666667     0.086900000000     0          
T        Si     0.862533333333     0.221566666667     0.171800000000     0          
T        Si     0.972100000000     0.195466666667     0.250000000000     0          
T        Si     0.749800000000     0.000000000000     0.000000000000     0          
O        O      0.744200000000     0.038766666667     0.513600000000     0          
O        O      0.790633333333     0.008166666667     0.622700000000     0          
O        O      0.813866666667     0.294400000000     0.580900000000     0          
O        O      0.735666666667     0.264300000000     0.603000000000     0          
O        O      0.968333333333     0.150833333333     0.682700000000     0          
O        O      0.930233333333     0.193766666667     0.676500000000     0          
O        O      0.673033333333     0.229000000000     0.706700000000     0          
O        O      0.843500000000     0.156500000000     0.250000000000     0          
O        O      0.923133333333     0.179566666667     0.250000000000     0          
O        O      0.768466666667     0.320433333333     0.540800000000     0          
T        Si     0.777300000000     0.305200000000     0.586900000000     0          
T        Si     0.974300000000     0.195866666667     0.671800000000     0          
T        Si     0.776633333333     0.305433333333     0.750000000000     0          
T        Si     0.749800000000     0.083133333333     0.500000000000     0          
O        O      0.705433333333     0.077533333333     0.013600000000     0          
O        O      0.782466666667     0.123966666667     0.122700000000     0          
O        O      0.852800000000     0.147200000000     0.080900000000     0          
O        O      0.804700000000     0.069000000000     0.103000000000     0          
O        O      0.817500000000     0.301666666667     0.182700000000     0          
O        O      0.736466666667     0.263566666667     0.176500000000     0          
O        O      0.777366666667     0.006366666667     0.206700000000     0          
O        O      0.687000000000     0.176833333333     0.750000000000     0          
O        O      0.743566666667     0.256466666667     0.750000000000     0          
O        O      0.781366666667     0.101800000000     0.040800000000     0          
T        Si     0.805433333333     0.110633333333     0.086900000000     0          
T        Si     0.778433333333     0.307633333333     0.171800000000     0          
T        Si     0.804533333333     0.109966666667     0.250000000000     0          
T        Si     0.666666666667     0.083133333333     0.000000000000     0          
O        O      0.961233333333     0.038766666667     0.513600000000     0          
O        O      0.991833333333     0.115800000000     0.622700000000     0          
O        O      0.705600000000     0.186133333333     0.580900000000     0          
O        O      0.735700000000     0.138033333333     0.603000000000     0          
O        O      0.849166666667     0.150833333333     0.682700000000     0          
O        O      0.806233333333     0.069800000000     0.676500000000     0          
O        O      0.771000000000     0.110700000000     0.706700000000     0          
O        O      0.843500000000     0.020333333333     0.250000000000     0          
O        O      0.820433333333     0.076900000000     0.250000000000     0          
O        O      0.679566666667     0.114700000000     0.540800000000     0          
T        Si     0.694800000000     0.138766666667     0.586900000000     0          
T        Si     0.804133333333     0.111766666667     0.671800000000     0          
T        Si     0.694566666667     0.137866666667     0.750000000000     0          
T        Si     0.916866666667     0.000000000000     0.500000000000     0          
O        O      0.922466666667     0.294566666667     0.013600000000     0          
O        O      0.876033333333     0.325166666667     0.122700000000     0          
O        O      0.852800000000     0.038933333333     0.080900000000     0          
O        O      0.931000000000     0.069033333333     0.103000000000     0          
O        O      0.698333333333     0.182500000000     0.182700000000     0          
O        O      0.736433333333     0.139566666667     0.176500000000     0          
O        O      0.993633333333     0.104333333333     0.206700000000     0          
O        O      0.823166666667     0.176833333333     0.750000000000     0          
O        O      0.743533333333     0.153766666667     0.750000000000     0          
O        O      0.898200000000     0.012900000000     0.040800000000     0          
T        Si     0.889366666667     0.028133333333     0.086900000000     0          
T        Si     0.692366666667     0.137466666667     0.171800000000     0          
T        Si     0.890033333333     0.027900000000     0.250000000000     0          
T        Si     0.916866666667     0.250200000000     0.000000000000     0          
O        O      0.961233333333     0.255800000000     0.513600000000     0          
O        O      0.884200000000     0.209366666667     0.622700000000     0          
O        O      0.813866666667     0.186133333333     0.580900000000     0          
O        O      0.861966666667     0.264333333333     0.603000000000     0          
O        O      0.849166666667     0.031666666667     0.682700000000     0          
O        O      0.930200000000     0.069766666667     0.676500000000     0          
O        O      0.889300000000     0.326966666667     0.706700000000     0          
O        O      0.979666666667     0.156500000000     0.250000000000     0          
O        O      0.923100000000     0.076866666667     0.250000000000     0          
O        O      0.885300000000     0.231533333333     0.540800000000     0          
T        Si     0.861233333333     0.222700000000     0.586900000000     0          
T        Si     0.888233333333     0.025700000000     0.671800000000     0          
T        Si     0.862133333333     0.223366666667     0.750000000000     0          
T        Si     0.666666666667     0.250200000000     0.500000000000     0          
O        O      0.705433333333     0.294566666667     0.486400000000     0          
O        O      0.782466666667     0.325166666667     0.377300000000     0          
O        O      0.852800000000     0.038933333333     0.419100000000     0          
O        O      0.804700000000     0.069033333333     0.397000000000     0          
O        O      0.817500000000     0.182500000000     0.317300000000     0          
O        O      0.736466666667     0.139566666667     0.323500000000     0          
O        O      0.777366666667     0.104333333333     0.293300000000     0          
O        O      0.781366666667     0.012900000000     0.459200000000     0          
T        Si     0.805433333333     0.028133333333     0.413100000000     0          
T        Si     0.778433333333     0.137466666667     0.328200000000     0          
T        Si     0.804533333333     0.027900000000     0.250000000000     0          
O        O      0.744200000000     0.038766666667     0.986400000000     0          
O        O      0.790633333333     0.115800000000     0.877300000000     0          
O        O      0.813866666667     0.186133333333     0.919100000000     0          
O        O      0.735666666667     0.138033333333     0.897000000000     0          
O        O      0.968333333333     0.150833333333     0.817300000000     0          
O        O      0.930233333333     0.069800000000     0.823500000000     0          
O        O      0.673033333333     0.110700000000     0.793300000000     0          
O        O      0.768466666667     0.114700000000     0.959200000000     0          
T        Si     0.777300000000     0.138766666667     0.913100000000     0          
T        Si     0.974300000000     0.111766666667     0.828200000000     0          
T        Si     0.776633333333     0.137866666667     0.750000000000     0          
O        O      0.705433333333     0.077533333333     0.486400000000     0          
O        O      0.674833333333     0.123966666667     0.377300000000     0          
O        O      0.961066666667     0.147200000000     0.419100000000     0          
O        O      0.930966666667     0.069000000000     0.397000000000     0          
O        O      0.817500000000     0.301666666667     0.317300000000     0          
O        O      0.860433333333     0.263566666667     0.323500000000     0          
O        O      0.895666666667     0.006366666667     0.293300000000     0          
O        O      0.987100000000     0.101800000000     0.459200000000     0          
T        Si     0.971866666667     0.110633333333     0.413100000000     0          
T        Si     0.862533333333     0.307633333333     0.328200000000     0          
T        Si     0.972100000000     0.109966666667     0.250000000000     0          
O        O      0.961233333333     0.038766666667     0.986400000000     0          
O        O      0.884200000000     0.008166666667     0.877300000000     0          
O        O      0.813866666667     0.294400000000     0.919100000000     0          
O        O      0.861966666667     0.264300000000     0.897000000000     0          
O        O      0.849166666667     0.150833333333     0.817300000000     0          
O        O      0.930200000000     0.193766666667     0.823500000000     0          
O        O      0.889300000000     0.229000000000     0.793300000000     0          
O        O      0.885300000000     0.320433333333     0.959200000000     0          
T        Si     0.861233333333     0.305200000000     0.913100000000     0          
T        Si     0.888233333333     0.195866666667     0.828200000000     0          
T        Si     0.862133333333     0.305433333333     0.750000000000     0          
O        O      0.922466666667     0.294566666667     0.486400000000     0          
O        O      0.876033333333     0.217533333333     0.377300000000     0          
O        O      0.852800000000     0.147200000000     0.419100000000     0          
O        O      0.931000000000     0.195300000000     0.397000000000     0          
O        O      0.698333333333     0.182500000000     0.317300000000     0          
O        O      0.736433333333     0.263533333333     0.323500000000     0          
O        O      0.993633333333     0.222633333333     0.293300000000     0          
O        O      0.898200000000     0.218633333333     0.459200000000     0          
T        Si     0.889366666667     0.194566666667     0.413100000000     0          
T        Si     0.692366666667     0.221566666667     0.328200000000     0          
T        Si     0.890033333333     0.195466666667     0.250000000000     0          
O        O      0.961233333333     0.255800000000     0.986400000000     0          
O        O      0.991833333333     0.209366666667     0.877300000000     0          
O        O      0.705600000000     0.186133333333     0.919100000000     0          
O        O      0.735700000000     0.264333333333     0.897000000000     0          
O        O      0.849166666667     0.031666666667     0.817300000000     0          
O        O      0.806233333333     0.069766666667     0.823500000000     0          
O        O      0.771000000000     0.326966666667     0.793300000000     0          
O        O      0.679566666667     0.231533333333     0.959200000000     0          
T        Si     0.694800000000     0.222700000000     0.913100000000     0          
T        Si     0.804133333333     0.025700000000     0.828200000000     0          
T        Si     0.694566666667     0.223366666667     0.750000000000     0          
O        O      0.991833333333     0.115800000000     0.877300000000     0          
O        O      0.771000000000     0.110700000000     0.793300000000     0          
O        O      0.679566666667     0.114700000000     0.959200000000     0          
T        Si     0.694800000000     0.138766666667     0.913100000000     0          
T        Si     0.804133333333     0.111766666667     0.828200000000     0          
T        Si     0.916866666667     0.000000000000     0.000000000000     0          
O        O      0.876033333333     0.325166666667     0.377300000000     0          
O        O      0.993633333333     0.104333333333     0.293300000000     0          
O        O      0.898200000000     0.012900000000     0.459200000000     0          
T        Si     0.889366666667     0.028133333333     0.413100000000     0          
T        Si     0.692366666667     0.137466666667     0.328200000000     0          
T        Si     0.916866666667     0.250200000000     0.500000000000     0          
O        O      0.884200000000     0.209366666667     0.877300000000     0          
O        O      0.889300000000     0.326966666667     0.793300000000     0          
O        O      0.885300000000     0.231533333333     0.959200000000     0          
T        Si     0.861233333333     0.222700000000     0.913100000000     0          
T        Si     0.888233333333     0.025700000000     0.828200000000     0          
T        Si     0.666666666667     0.250200000000     0.000000000000     0          
O        O      0.674833333333     0.217533333333     0.377300000000     0          
O        O      0.895666666667     0.222633333333     0.293300000000     0          
O        O      0.987100000000     0.218633333333     0.459200000000     0          
T        Si     0.971866666667     0.194566666667     0.413100000000     0          
T        Si     0.862533333333     0.221566666667     0.328200000000     0          
T        Si     0.749800000000     0.000000000000     0.500000000000     0          
O        O      0.790633333333     0.008166666667     0.877300000000     0          
O        O      0.673033333333     0.229000000000     0.793300000000     0          
O        O      0.768466666667     0.320433333333     0.959200000000     0          
T        Si     0.777300000000     0.305200000000     0.913100000000     0          
T        Si     0.974300000000     0.195866666667     0.828200000000     0          
T        Si     0.749800000000     0.083133333333     0.000000000000     0          
O        O      0.782466666667     0.123966666667     0.377300000000     0          
O        O      0.777366666667     0.006366666667     0.293300000000     0          
O        O      0.781366666667     0.101800000000     0.459200000000     0          
T        Si     0.805433333333     0.110633333333     0.413100000000     0          
T        Si     0.778433333333     0.307633333333     0.328200000000     0          
T        Si     0.666666666667     0.083133333333     0.500000000000     0          
O        O      0.884200000000     0.008166666667     0.622700000000     0          
O        O      0.889300000000     0.229000000000     0.706700000000     0          
O        O      0.885300000000     0.320433333333     0.540800000000     0          
T        Si     0.861233333333     0.305200000000     0.586900000000     0          
T        Si     0.888233333333     0.195866666667     0.671800000000     0          
O        O      0.876033333333     0.217533333333     0.122700000000     0          
O        O      0.993633333333     0.222633333333     0.206700000000     0          
O        O      0.898200000000     0.218633333333     0.040800000000     0          
T        Si     0.889366666667     0.194566666667     0.086900000000     0          
T        Si     0.692366666667     0.221566666667     0.171800000000     0          
O        O      0.991833333333     0.209366666667     0.622700000000     0          
O        O      0.771000000000     0.326966666667     0.706700000000     0          
O        O      0.679566666667     0.231533333333     0.540800000000     0          
T        Si     0.694800000000     0.222700000000     0.586900000000     0          
T        Si     0.804133333333     0.025700000000     0.671800000000     0          
O        O      0.782466666667     0.325166666667     0.122700000000     0          
O        O      0.777366666667     0.104333333333     0.206700000000     0          
O        O      0.781366666667     0.012900000000     0.040800000000     0          
T        Si     0.805433333333     0.028133333333     0.086900000000     0          
T        Si     0.778433333333     0.137466666667     0.171800000000     0          
O        O      0.790633333333     0.115800000000     0.622700000000     0          
O        O      0.673033333333     0.110700000000     0.706700000000     0          
O        O      0.768466666667     0.114700000000     0.540800000000     0          
T        Si     0.777300000000     0.138766666667     0.586900000000     0          
T        Si     0.974300000000     0.111766666667     0.671800000000     0          
O        O      0.674833333333     0.123966666667     0.122700000000     0          
O        O      0.895666666667     0.006366666667     0.206700000000     0          
O        O      0.987100000000     0.101800000000     0.040800000000     0          
T        Si     0.971866666667     0.110633333333     0.086900000000     0          
T        Si     0.862533333333     0.307633333333     0.171800000000     0          
O        O      0.705433333333     0.627900000000     0.013600000000     0          
O        O      0.674833333333     0.550866666667     0.122700000000     0          
O        O      0.961066666667     0.480533333333     0.080900000000     0          
O        O      0.930966666667     0.528633333333     0.103000000000     0          
O        O      0.817500000000     0.515833333333     0.182700000000     0          
O        O      0.860433333333     0.596866666667     0.176500000000     0          
O        O      0.895666666667     0.555966666667     0.206700000000     0          
O        O      0.823166666667     0.646333333333     0.750000000000     0          
O        O      0.846233333333     0.589766666667     0.750000000000     0          
O        O      0.987100000000     0.551966666667     0.040800000000     0          
T        Si     0.971866666667     0.527900000000     0.086900000000     0          
T        Si     0.862533333333     0.554900000000     0.171800000000     0          
T        Si     0.972100000000     0.528800000000     0.250000000000     0          
T        Si     0.749800000000     0.333333333333     0.000000000000     0          
O        O      0.744200000000     0.372100000000     0.513600000000     0          
O        O      0.790633333333     0.341500000000     0.622700000000     0          
O        O      0.813866666667     0.627733333333     0.580900000000     0          
O        O      0.735666666667     0.597633333333     0.603000000000     0          
O        O      0.968333333333     0.484166666667     0.682700000000     0          
O        O      0.930233333333     0.527100000000     0.676500000000     0          
O        O      0.673033333333     0.562333333333     0.706700000000     0          
O        O      0.843500000000     0.489833333333     0.250000000000     0          
O        O      0.923133333333     0.512900000000     0.250000000000     0          
O        O      0.768466666667     0.653766666667     0.540800000000     0          
T        Si     0.777300000000     0.638533333333     0.586900000000     0          
T        Si     0.974300000000     0.529200000000     0.671800000000     0          
T        Si     0.776633333333     0.638766666667     0.750000000000     0          
T        Si     0.749800000000     0.416466666667     0.500000000000     0          
O        O      0.705433333333     0.410866666667     0.013600000000     0          
O        O      0.782466666667     0.457300000000     0.122700000000     0          
O        O      0.852800000000     0.480533333333     0.080900000000     0          
O        O      0.804700000000     0.402333333333     0.103000000000     0          
O        O      0.817500000000     0.635000000000     0.182700000000     0          
O        O      0.736466666667     0.596900000000     0.176500000000     0          
O        O      0.777366666667     0.339700000000     0.206700000000     0          
O        O      0.687000000000     0.510166666667     0.750000000000     0          
O        O      0.743566666667     0.589800000000     0.750000000000     0          
O        O      0.781366666667     0.435133333333     0.040800000000     0          
T        Si     0.805433333333     0.443966666667     0.086900000000     0          
T        Si     0.778433333333     0.640966666667     0.171800000000     0          
T        Si     0.804533333333     0.443300000000     0.250000000000     0          
T        Si     0.666666666667     0.416466666667     0.000000000000     0          
O        O      0.961233333333     0.372100000000     0.513600000000     0          
O        O      0.991833333333     0.449133333333     0.622700000000     0          
O        O      0.705600000000     0.519466666667     0.580900000000     0          
O        O      0.735700000000     0.471366666667     0.603000000000     0          
O        O      0.849166666667     0.484166666667     0.682700000000     0          
O        O      0.806233333333     0.403133333333     0.676500000000     0          
O        O      0.771000000000     0.444033333333     0.706700000000     0          
O        O      0.843500000000     0.353666666667     0.250000000000     0          
O        O      0.820433333333     0.410233333333     0.250000000000     0          
O        O      0.679566666667     0.448033333333     0.540800000000     0          
T        Si     0.694800000000     0.472100000000     0.586900000000     0          
T        Si     0.804133333333     0.445100000000     0.671800000000     0          
T        Si     0.694566666667     0.471200000000     0.750000000000     0          
T        Si     0.916866666667     0.333333333333     0.500000000000     0          
O        O      0.922466666667     0.627900000000     0.013600000000     0          
O        O      0.876033333333     0.658500000000     0.122700000000     0          
O        O      0.852800000000     0.372266666667     0.080900000000     0          
O        O      0.931000000000     0.402366666667     0.103000000000     0          
O        O      0.698333333333     0.515833333333     0.182700000000     0          
O        O      0.736433333333     0.472900000000     0.176500000000     0          
O        O      0.993633333333     0.437666666667     0.206700000000     0          
O        O      0.823166666667     0.510166666667     0.750000000000     0          
O        O      0.743533333333     0.487100000000     0.750000000000     0          
O        O      0.898200000000     0.346233333333     0.040800000000     0          
T        Si     0.889366666667     0.361466666667     0.086900000000     0          
T        Si     0.692366666667     0.470800000000     0.171800000000     0          
T        Si     0.890033333333     0.361233333333     0.250000000000     0          
T        Si     0.916866666667     0.583533333333     0.000000000000     0          
O        O      0.961233333333     0.589133333333     0.513600000000     0          
O        O      0.884200000000     0.542700000000     0.622700000000     0          
O        O      0.813866666667     0.519466666667     0.580900000000     0          
O        O      0.861966666667     0.597666666667     0.603000000000     0          
O        O      0.849166666667     0.365000000000     0.682700000000     0          
O        O      0.930200000000     0.403100000000     0.676500000000     0          
O        O      0.889300000000     0.660300000000     0.706700000000     0          
O        O      0.979666666667     0.489833333333     0.250000000000     0          
O        O      0.923100000000     0.410200000000     0.250000000000     0          
O        O      0.885300000000     0.564866666667     0.540800000000     0          
T        Si     0.861233333333     0.556033333333     0.586900000000     0          
T        Si     0.888233333333     0.359033333333     0.671800000000     0          
T        Si     0.862133333333     0.556700000000     0.750000000000     0          
T        Si     0.666666666667     0.583533333333     0.500000000000     0          
O        O      0.705433333333     0.627900000000     0.486400000000     0          
O        O      0.782466666667     0.658500000000     0.377300000000     0          
O        O      0.852800000000     0.372266666667     0.419100000000     0          
O        O      0.804700000000     0.402366666667     0.397000000000     0          
O        O      0.817500000000     0.515833333333     0.317300000000     0          
O        O      0.736466666667     0.472900000000     0.323500000000     0          
O        O      0.777366666667     0.437666666667     0.293300000000     0          
O        O      0.781366666667     0.346233333333     0.459200000000     0          
T        Si     0.805433333333     0.361466666667     0.413100000000     0          
T        Si     0.778433333333     0.470800000000     0.328200000000     0          
T        Si     0.804533333333     0.361233333333     0.250000000000     0          
O        O      0.744200000000     0.372100000000     0.986400000000     0          
O        O      0.790633333333     0.449133333333     0.877300000000     0          
O        O      0.813866666667     0.519466666667     0.919100000000     0          
O        O      0.735666666667     0.471366666667     0.897000000000     0          
O        O      0.968333333333     0.484166666667     0.817300000000     0          
O        O      0.930233333333     0.403133333333     0.823500000000     0          
O        O      0.673033333333     0.444033333333     0.793300000000     0          
O        O      0.768466666667     0.448033333333     0.959200000000     0          
T        Si     0.777300000000     0.472100000000     0.913100000000     0          
T        Si     0.974300000000     0.445100000000     0.828200000000     0          
T        Si     0.776633333333     0.471200000000     0.750000000000     0          
O        O      0.705433333333     0.410866666667     0.486400000000     0          
O        O      0.674833333333     0.457300000000     0.377300000000     0          
O        O      0.961066666667     0.480533333333     0.419100000000     0          
O        O      0.930966666667     0.402333333333     0.397000000000     0          
O        O      0.817500000000     0.635000000000     0.317300000000     0          
O        O      0.860433333333     0.596900000000     0.323500000000     0          
O        O      0.895666666667     0.339700000000     0.293300000000     0          
O        O      0.987100000000     0.435133333333     0.459200000000     0          
T        Si     0.971866666667     0.443966666667     0.413100000000     0          
T        Si     0.862533333333     0.640966666667     0.328200000000     0          
T        Si     0.972100000000     0.443300000000     0.250000000000     0          
O        O      0.961233333333     0.372100000000     0.986400000000     0          
O        O      0.884200000000     0.341500000000     0.877300000000     0          
O        O      0.813866666667     0.627733333333     0.919100000000     0          
O        O      0.861966666667     0.597633333333     0.897000000000     0          
O        O      0.849166666667     0.484166666667     0.817300000000     0          
O        O      0.930200000000     0.527100000000     0.823500000000     0          
O        O      0.889300000000     0.562333333333     0.793300000000     0          
O        O      0.885300000000     0.653766666667     0.959200000000     0          
T        Si     0.861233333333     0.638533333333     0.913100000000     0          
T        Si     0.888233333333     0.529200000000     0.828200000000     0          
T        Si     0.862133333333     0.638766666667     0.750000000000     0          
O        O      0.922466666667     0.627900000000     0.486400000000     0          
O        O      0.876033333333     0.550866666667     0.377300000000     0          
O        O      0.852800000000     0.480533333333     0.419100000000     0          
O        O      0.931000000000     0.528633333333     0.397000000000     0          
O        O      0.698333333333     0.515833333333     0.317300000000     0          
O        O      0.736433333333     0.596866666667     0.323500000000     0          
O        O      0.993633333333     0.555966666667     0.293300000000     0          
O        O      0.898200000000     0.551966666667     0.459200000000     0          
T        Si     0.889366666667     0.527900000000     0.413100000000     0          
T        Si     0.692366666667     0.554900000000     0.328200000000     0          
T        Si     0.890033333333     0.528800000000     0.250000000000     0          
O        O      0.961233333333     0.589133333333     0.986400000000     0          
O        O      0.991833333333     0.542700000000     0.877300000000     0          
O        O      0.705600000000     0.519466666667     0.919100000000     0          
O        O      0.735700000000     0.597666666667     0.897000000000     0          
O        O      0.849166666667     0.365000000000     0.817300000000     0          
O        O      0.806233333333     0.403100000000     0.823500000000     0          
O        O      0.771000000000     0.660300000000     0.793300000000     0          
O        O      0.679566666667     0.564866666667     0.959200000000     0          
T        Si     0.694800000000     0.556033333333     0.913100000000     0          
T        Si     0.804133333333     0.359033333333     0.828200000000     0          
T        Si     0.694566666667     0.556700000000     0.750000000000     0          
O        O      0.991833333333     0.449133333333     0.877300000000     0          
O        O      0.771000000000     0.444033333333     0.793300000000     0          
O        O      0.679566666667     0.448033333333     0.959200000000     0          
T        Si     0.694800000000     0.472100000000     0.913100000000     0          
T        Si     0.804133333333     0.445100000000     0.828200000000     0          
T        Si     0.916866666667     0.333333333333     0.000000000000     0          
O        O      0.876033333333     0.658500000000     0.377300000000     0          
O        O      0.993633333333     0.437666666667     0.293300000000     0          
O        O      0.898200000000     0.346233333333     0.459200000000     0          
T        Si     0.889366666667     0.361466666667     0.413100000000     0          
T        Si     0.692366666667     0.470800000000     0.328200000000     0          
T        Si     0.916866666667     0.583533333333     0.500000000000     0          
O        O      0.884200000000     0.542700000000     0.877300000000     0          
O        O      0.889300000000     0.660300000000     0.793300000000     0          
O        O      0.885300000000     0.564866666667     0.959200000000     0          
T        Si     0.861233333333     0.556033333333     0.913100000000     0          
T        Si     0.888233333333     0.359033333333     0.828200000000     0          
T        Si     0.666666666667     0.583533333333     0.000000000000     0          
O        O      0.674833333333     0.550866666667     0.377300000000     0          
O        O      0.895666666667     0.555966666667     0.293300000000     0          
O        O      0.987100000000     0.551966666667     0.459200000000     0          
T        Si     0.971866666667     0.527900000000     0.413100000000     0          
T        Si     0.862533333333     0.554900000000     0.328200000000     0          
T        Si     0.749800000000     0.333333333333     0.500000000000     0          
O        O      0.790633333333     0.341500000000     0.877300000000     0          
O        O      0.673033333333     0.562333333333     0.793300000000     0          
O        O      0.768466666667     0.653766666667     0.959200000000     0          
T        Si     0.777300000000     0.638533333333     0.913100000000     0          
T        Si     0.974300000000     0.529200000000     0.828200000000     0          
T        Si     0.749800000000     0.416466666667     0.000000000000     0          
O        O      0.782466666667     0.457300000000     0.377300000000     0          
O        O      0.777366666667     0.339700000000     0.293300000000     0          
O        O      0.781366666667     0.435133333333     0.459200000000     0          
T        Si     0.805433333333     0.443966666667     0.413100000000     0          
T        Si     0.778433333333     0.640966666667     0.328200000000     0          
T        Si     0.666666666667     0.416466666667     0.500000000000     0          
O        O      0.884200000000     0.341500000000     0.622700000000     0          
O        O      0.889300000000     0.562333333333     0.706700000000     0          
O        O      0.885300000000     0.653766666667     0.540800000000     0          
T        Si     0.861233333333     0.638533333333     0.586900000000     0          
T        Si     0.888233333333     0.529200000000     0.671800000000     0          
O        O      0.876033333333     0.550866666667     0.122700000000     0          
O        O      0.993633333333     0.555966666667     0.206700000000     0          
O        O      0.898200000000     0.551966666667     0.040800000000     0          
T        Si     0.889366666667     0.527900000000     0.086900000000     0          
T        Si     0.692366666667     0.554900000000     0.171800000000     0          
O        O      0.991833333333     0.542700000000     0.622700000000     0          
O        O      0.771000000000     0.660300000000     0.706700000000     0          
O        O      0.679566666667     0.564866666667     0.540800000000     0          
T        Si     0.694800000000     0.556033333333     0.586900000000     0          
T        Si     0.804133333333     0.359033333333     0.671800000000     0          
O        O      0.782466666667     0.658500000000     0.122700000000     0          
O        O      0.777366666667     0.437666666667     0.206700000000     0          
O        O      0.781366666667     0.346233333333     0.040800000000     0          
T        Si     0.805433333333     0.361466666667     0.086900000000     0          
T        Si     0.778433333333     0.470800000000     0.171800000000     0          
O        O      0.790633333333     0.449133333333     0.622700000000     0          
O        O      0.673033333333     0.444033333333     0.706700000000     0          
O        O      0.768466666667     0.448033333333     0.540800000000     0          
T        Si     0.777300000000     0.472100000000     0.586900000000     0          
T        Si     0.974300000000     0.445100000000     0.671800000000     0          
O        O      0.674833333333     0.457300000000     0.122700000000     0          
O        O      0.895666666667     0.339700000000     0.206700000000     0          
O        O      0.987100000000     0.435133333333     0.040800000000     0          
T        Si     0.971866666667     0.443966666667     0.086900000000     0          
T        Si     0.862533333333     0.640966666667     0.171800000000     0          
O        O      0.705433333333     0.961233333333     0.013600000000     0          
O        O      0.674833333333     0.884200000000     0.122700000000     0          
O        O      0.961066666667     0.813866666667     0.080900000000     0          
O        O      0.930966666667     0.861966666667     0.103000000000     0          
O        O      0.817500000000     0.849166666667     0.182700000000     0          
O        O      0.860433333333     0.930200000000     0.176500000000     0          
O        O      0.895666666667     0.889300000000     0.206700000000     0          
O        O      0.823166666667     0.979666666667     0.750000000000     0          
O        O      0.846233333333     0.923100000000     0.750000000000     0          
O        O      0.987100000000     0.885300000000     0.040800000000     0          
T        Si     0.971866666667     0.861233333333     0.086900000000     0          
T        Si     0.862533333333     0.888233333333     0.171800000000     0          
T        Si     0.972100000000     0.862133333333     0.250000000000     0          
T        Si     0.749800000000     0.666666666667     0.000000000000     0          
O        O      0.744200000000     0.705433333333     0.513600000000     0          
O        O      0.790633333333     0.674833333333     0.622700000000     0          
O        O      0.813866666667     0.961066666667     0.580900000000     0          
O        O      0.735666666667     0.930966666667     0.603000000000     0          
O        O      0.968333333333     0.817500000000     0.682700000000     0          
O        O      0.930233333333     0.860433333333     0.676500000000     0          
O        O      0.673033333333     0.895666666667     0.706700000000     0          
O        O      0.843500000000     0.823166666667     0.250000000000     0          
O        O      0.923133333333     0.846233333333     0.250000000000     0          
O        O      0.768466666667     0.987100000000     0.540800000000     0          
T        Si     0.777300000000     0.971866666667     0.586900000000     0          
T        Si     0.974300000000     0.862533333333     0.671800000000     0          
T        Si     0.776633333333     0.972100000000     0.750000000000     0          
T        Si     0.749800000000     0.749800000000     0.500000000000     0          
O        O      0.705433333333     0.744200000000     0.013600000000     0          
O        O      0.782466666667     0.790633333333     0.122700000000     0          
O        O      0.852800000000     0.813866666667     0.080900000000     0          
O        O      0.804700000000     0.735666666667     0.103000000000     0          
O        O      0.817500000000     0.968333333333     0.182700000000     0          
O        O      0.736466666667     0.930233333333     0.176500000000     0          
O        O      0.777366666667     0.673033333333     0.206700000000     0          
O        O      0.687000000000     0.843500000000     0.750000000000     0          
O        O      0.743566666667     0.923133333333     0.750000000000     0          
O        O      0.781366666667     0.768466666667     0.040800000000     0          
T        Si     0.805433333333     0.777300000000     0.086900000000     0          
T        Si     0.778433333333     0.974300000000     0.171800000000     0          
T        Si     0.804533333333     0.776633333333     0.250000000000     0          
T        Si     0.666666666667     0.749800000000     0.000000000000     0          
O        O      0.961233333333     0.705433333333     0.513600000000     0          
O        O      0.991833333333     0.782466666667     0.622700000000     0          
O        O      0.705600000000     0.852800000000     0.580900000000     0          
O        O      0.735700000000     0.804700000000     0.603000000000     0          
O        O      0.849166666667     0.817500000000     0.682700000000     0          
O        O      0.806233333333     0.736466666667     0.676500000000     0          
O        O      0.771000000000     0.777366666667     0.706700000000     0          
O        O      0.843500000000     0.687000000000     0.250000000000     0          
O        O      0.820433333333     0.743566666667     0.250000000000     0          
O        O      0.679566666667     0.781366666667     0.540800000000     0          
T        Si     0.694800000000     0.805433333333     0.586900000000     0          
T        Si     0.804133333333     0.778433333333     0.671800000000     0          
T        Si     0.694566666667     0.804533333333     0.750000000000     0          
T        Si     0.916866666667     0.666666666667     0.500000000000     0          
O        O      0.922466666667     0.961233333333     0.013600000000     0          
O        O      0.876033333333     0.991833333333     0.122700000000     0          
O        O      0.852800000000     0.705600000000     0.080900000000     0          
O        O      0.931000000000     0.735700000000     0.103000000000     0          
O        O      0.698333333333     0.849166666667     0.182700000000     0          
O        O      0.736433333333     0.806233333333     0.176500000000     0          
O        O      0.993633333333     0.771000000000     0.206700000000     0          
O        O      0.823166666667     0.843500000000     0.750000000000     0          
O        O      0.743533333333     0.820433333333     0.750000000000     0          
O        O      0.898200000000     0.679566666667     0.040800000000     0          
T        Si     0.889366666667     0.694800000000     0.086900000000     0          
T        Si     0.692366666667     0.804133333333     0.171800000000     0          
T        Si     0.890033333333     0.694566666667     0.250000000000     0          
T        Si     0.916866666667     0.916866666667     0.000000000000     0          
O        O      0.961233333333     0.922466666667     0.513600000000     0          
O        O      0.884200000000     0.876033333333     0.622700000000     0          
O        O      0.813866666667     0.852800000000     0.580900000000     0          
O        O      0.861966666667     0.931000000000     0.603000000000     0          
O        O      0.849166666667     0.698333333333     0.682700000000     0          
O        O      0.930200000000     0.736433333333     0.676500000000     0          
O        O      0.889300000000     0.993633333333     0.706700000000     0          
O        O      0.979666666667     0.823166666667     0.250000000000     0          
O        O      0.923100000000     0.743533333333     0.250000000000     0          
O        O      0.885300000000     0.898200000000     0.540800000000     0          
T        Si     0.861233333333     0.889366666667     0.586900000000     0          
T        Si     0.888233333333     0.692366666667     0.671800000000     0          
T        Si     0.862133333333     0.890033333333     0.750000000000     0          
T        Si     0.666666666667     0.916866666667     0.500000000000     0          
O        O      0.705433333333     0.961233333333     0.486400000000     0          
O        O      0.782466666667     0.991833333333     0.377300000000     0          
O        O      0.852800000000     0.705600000000     0.419100000000     0          
O        O      0.804700000000     0.735700000000     0.397000000000     0          
O        O      0.817500000000     0.849166666667     0.317300000000     0          
O        O      0.736466666667     0.806233333333     0.323500000000     0          
O        O      0.777366666667     0.771000000000     0.293300000000     0          
O        O      0.781366666667     0.679566666667     0.459200000000     0          
T        Si     0.805433333333     0.694800000000     0.413100000000     0          
T        Si     0.778433333333     0.804133333333     0.328200000000     0          
T        Si     0.804533333333     0.694566666667     0.250000000000     0          
O        O      0.744200000000     0.705433333333     0.986400000000     0          
O        O      0.790633333333     0.782466666667     0.877300000000     0          
O        O      0.813866666667     0.852800000000     0.919100000000     0          
O        O      0.735666666667     0.804700000000     0.897000000000     0          
O        O      0.968333333333     0.817500000000     0.817300000000     0          
O        O      0.930233333333     0.736466666667     0.823500000000     0          
O        O      0.673033333333     0.777366666667     0.793300000000     0          
O        O      0.768466666667     0.781366666667     0.959200000000     0          
T        Si     0.777300000000     0.805433333333     0.913100000000     0          
T        Si     0.974300000000     0.778433333333     0.828200000000     0          
T        Si     0.776633333333     0.804533333333     0.750000000000     0          
O        O      0.705433333333     0.744200000000     0.486400000000     0          
O        O      0.674833333333     0.790633333333     0.377300000000     0          
O        O      0.961066666667     0.813866666667     0.419100000000     0          
O        O      0.930966666667     0.735666666667     0.397000000000     0          
O        O      0.817500000000     0.968333333333     0.317300000000     0          
O        O      0.860433333333     0.930233333333     0.323500000000     0          
O        O      0.895666666667     0.673033333333     0.293300000000     0          
O        O      0.987100000000     0.768466666667     0.459200000000     0          
T        Si     0.971866666667     0.777300000000     0.413100000000     0          
T        Si     0.862533333333     0.974300000000     0.328200000000     0          
T        Si     0.972100000000     0.776633333333     0.250000000000     0          
O        O      0.961233333333     0.705433333333     0.986400000000     0          
O        O      0.884200000000     0.674833333333     0.877300000000     0          
O        O      0.813866666667     0.961066666667     0.919100000000     0          
O        O      0.861966666667     0.930966666667     0.897000000000     0          
O        O      0.849166666667     0.817500000000     0.817300000000     0          
O        O      0.930200000000     0.860433333333     0.823500000000     0          
O        O      0.889300000000     0.895666666667     0.793300000000     0          
O        O      0.885300000000     0.987100000000     0.959200000000     0          
T        Si     0.861233333333     0.971866666667     0.913100000000     0          
T        Si     0.888233333333     0.862533333333     0.828200000000     0          
T        Si     0.862133333333     0.972100000000     0.750000000000     0          
O        O      0.922466666667     0.961233333333     0.486400000000     0          
O        O      0.876033333333     0.884200000000     0.377300000000     0          
O        O      0.852800000000     0.813866666667     0.419100000000     0          
O        O      0.931000000000     0.861966666667     0.397000000000     0          
O        O      0.698333333333     0.849166666667     0.317300000000     0          
O        O      0.736433333333     0.930200000000     0.323500000000     0          
O        O      0.993633333333     0.889300000000     0.293300000000     0          
O        O      0.898200000000     0.885300000000     0.459200000000     0          
T        Si     0.889366666667     0.861233333333     0.413100000000     0          
T        Si     0.692366666667     0.888233333333     0.328200000000     0          
T        Si     0.890033333333     0.862133333333     0.250000000000     0          
O        O      0.961233333333     0.922466666667     0.986400000000     0          
O        O      0.991833333333     0.876033333333     0.877300000000     0          
O        O      0.705600000000     0.852800000000     0.919100000000     0          
O        O      0.735700000000     0.931000000000     0.897000000000     0          
O        O      0.849166666667     0.698333333333     0.817300000000     0          
O        O      0.806233333333     0.736433333333     0.823500000000     0          
O        O      0.771000000000     0.993633333333     0.793300000000     0          
O        O      0.679566666667     0.898200000000     0.959200000000     0          
T        Si     0.694800000000     0.889366666667     0.913100000000     0          
T        Si     0.804133333333     0.692366666667     0.828200000000     0          
T        Si     0.694566666667     0.890033333333     0.750000000000     0          
O        O      0.991833333333     0.782466666667     0.877300000000     0          
O        O      0.771000000000     0.777366666667     0.793300000000     0          
O        O      0.679566666667     0.781366666667     0.959200000000     0          
T        Si     0.694800000000     0.805433333333     0.913100000000     0          
T        Si     0.804133333333     0.778433333333     0.828200000000     0          
T        Si     0.916866666667     0.666666666667     0.000000000000     0          
O        O      0.876033333333     0.991833333333     0.377300000000     0          
O        O      0.993633333333     0.771000000000     0.293300000000     0          
O        O      0.898200000000     0.679566666667     0.459200000000     0          
T        Si     0.889366666667     0.694800000000     0.413100000000     0          
T        Si     0.692366666667     0.804133333333     0.328200000000     0          
T        Si     0.916866666667     0.916866666667     0.500000000000     0          
O        O      0.884200000000     0.876033333333     0.877300000000     0          
O        O      0.889300000000     0.993633333333     0.793300000000     0          
O        O      0.885300000000     0.898200000000     0.959200000000     0          
T        Si     0.861233333333     0.889366666667     0.913100000000     0          
T        Si     0.888233333333     0.692366666667     0.828200000000     0          
T        Si     0.666666666667     0.916866666667     0.000000000000     0          
O        O      0.674833333333     0.884200000000     0.377300000000     0          
O        O      0.895666666667     0.889300000000     0.293300000000     0          
O        O      0.987100000000     0.885300000000     0.459200000000     0          
T        Si     0.971866666667     0.861233333333     0.413100000000     0          
T        Si     0.862533333333     0.888233333333     0.328200000000     0          
T        Si     0.749800000000     0.666666666667     0.500000000000     0          
O        O      0.790633333333     0.674833333333     0.877300000000     0          
O        O      0.673033333333     0.895666666667     0.793300000000     0          
O        O      0.768466666667     0.987100000000     0.959200000000     0          
T        Si     0.777300000000     0.971866666667     0.913100000000     0          
T        Si     0.974300000000     0.862533333333     0.828200000000     0          
T        Si     0.749800000000     0.749800000000     0.000000000000     0          
O        O      0.782466666667     0.790633333333     0.377300000000     0          
O        O      0.777366666667     0.673033333333     0.293300000000     0          
O        O      0.781366666667     0.768466666667     0.459200000000     0          
T        Si     0.805433333333     0.777300000000     0.413100000000     0          
T        Si     0.778433333333     0.974300000000     0.328200000000     0          
T        Si     0.666666666667     0.749800000000     0.500000000000     0          
O        O      0.884200000000     0.674833333333     0.622700000000     0          
O        O      0.889300000000     0.895666666667     0.706700000000     0          
O        O      0.885300000000     0.987100000000     0.540800000000     0          
T        Si     0.861233333333     0.971866666667     0.586900000000     0          
T        Si     0.888233333333     0.862533333333     0.671800000000     0          
O        O      0.876033333333     0.884200000000     0.122700000000     0          
O        O      0.993633333333     0.889300000000     0.206700000000     0          
O        O      0.898200000000     0.885300000000     0.040800000000     0          
T        Si     0.889366666667     0.861233333333     0.086900000000     0          
T        Si     0.692366666667     0.888233333333     0.171800000000     0          
O        O      0.991833333333     0.876033333333     0.622700000000     0          
O        O      0.771000000000     0.993633333333     0.706700000000     0          
O        O      0.679566666667     0.898200000000     0.540800000000     0          
T        Si     0.694800000000     0.889366666667     0.586900000000     0          
T        Si     0.804133333333     0.692366666667     0.671800000000     0          
O        O      0.782466666667     0.991833333333     0.122700000000     0          
O        O      0.777366666667     0.771000000000     0.206700000000     0          
O        O      0.781366666667     0.679566666667     0.040800000000     0          
T        Si     0.805433333333     0.694800000000     0.086900000000     0          
T        Si     0.778433333333     0.804133333333     0.171800000000     0          
O        O      0.790633333333     0.782466666667     0.622700000000     0          
O        O      0.673033333333     0.777366666667     0.706700000000     0          
O        O      0.768466666667     0.781366666667     0.540800000000     0          
T        Si     0.777300000000     0.805433333333     0.586900000000     0          
T        Si     0.974300000000     0.778433333333     0.671800000000     0          
O        O      0.674833333333     0.790633333333     0.122700000000     0          
O        O      0.895666666667     0.673033333333     0.206700000000     0          
O        O      0.987100000000     0.768466666667     0.040800000000     0          
T        Si     0.971866666667     0.777300000000     0.086900000000     0          
T        Si     0.862533333333     0.974300000000     0.171800000000     0          


