data_zeolite

_audit_creation_method RASPA-1.0
_audit_creation_date 2021-6-6
_audit_author_name ''

_cell_length_a    26.689
_cell_length_b    26.689
_cell_length_c    12.908
_cell_angle_alpha 90
_cell_angle_beta  90
_cell_angle_gamma 90
_cell_volume      18388.8

_symmetry_cell_setting          tetragonal
_symmetry_space_group_name_Hall 'P 1'
_symmetry_space_group_name_H-M  'P 1'
_symmetry_Int_Tables_number     1

_symmetry_equiv_pos_as_xyz 'x,y,z'

loop_
_atom_site_label
_atom_site_type_symbol
_atom_site_fract_x
_atom_site_fract_y
_atom_site_fract_z
_atom_site_charge
T        Si     0.058000000000     0.317700000000     0.058250000000     0          
T        Si     0.056500000000     0.202200000000     0.061300000000     0          
T        Si     0.000000000000     0.442800000000     0.187750000000     0          
T        Si     0.058000000000     0.058000000000     0.190350000000     0          
T        Si     0.111500000000     0.111500000000     0.097700000000     0          
T        Si     0.092600000000     0.407400000000     0.125000000000     0          
T        Si     0.059100000000     0.059100000000     0.000000000000     0          
T        Si     0.682300000000     0.058000000000     0.058250000000     0          
T        Si     0.797800000000     0.056500000000     0.061300000000     0          
T        Si     0.557200000000     0.000000000000     0.187750000000     0          
T        Si     0.942000000000     0.058000000000     0.190350000000     0          
T        Si     0.888500000000     0.111500000000     0.097700000000     0          
T        Si     0.592600000000     0.092600000000     0.125000000000     0          
T        Si     0.940900000000     0.059100000000     0.000000000000     0          
T        Si     0.942000000000     0.682300000000     0.058250000000     0          
T        Si     0.943500000000     0.797800000000     0.061300000000     0          
T        Si     0.000000000000     0.557200000000     0.187750000000     0          
T        Si     0.942000000000     0.942000000000     0.190350000000     0          
T        Si     0.888500000000     0.888500000000     0.097700000000     0          
T        Si     0.907400000000     0.592600000000     0.125000000000     0          
T        Si     0.940900000000     0.940900000000     0.000000000000     0          
T        Si     0.317700000000     0.942000000000     0.058250000000     0          
T        Si     0.202200000000     0.943500000000     0.061300000000     0          
T        Si     0.442800000000     0.000000000000     0.187750000000     0          
T        Si     0.058000000000     0.942000000000     0.190350000000     0          
T        Si     0.111500000000     0.888500000000     0.097700000000     0          
T        Si     0.407400000000     0.907400000000     0.125000000000     0          
T        Si     0.059100000000     0.940900000000     0.000000000000     0          
T        Si     0.058000000000     0.682300000000     0.441750000000     0          
T        Si     0.056500000000     0.797800000000     0.438700000000     0          
T        Si     0.000000000000     0.557200000000     0.312250000000     0          
T        Si     0.058000000000     0.942000000000     0.309650000000     0          
T        Si     0.111500000000     0.888500000000     0.402300000000     0          
T        Si     0.092600000000     0.592600000000     0.375000000000     0          
T        Si     0.317700000000     0.058000000000     0.441750000000     0          
T        Si     0.202200000000     0.056500000000     0.438700000000     0          
T        Si     0.442800000000     0.000000000000     0.312250000000     0          
T        Si     0.058000000000     0.058000000000     0.309650000000     0          
T        Si     0.111500000000     0.111500000000     0.402300000000     0          
T        Si     0.407400000000     0.092600000000     0.375000000000     0          
T        Si     0.942000000000     0.317700000000     0.441750000000     0          
T        Si     0.943500000000     0.202200000000     0.438700000000     0          
T        Si     0.000000000000     0.442800000000     0.312250000000     0          
T        Si     0.942000000000     0.058000000000     0.309650000000     0          
T        Si     0.888500000000     0.111500000000     0.402300000000     0          
T        Si     0.907400000000     0.407400000000     0.375000000000     0          
T        Si     0.682300000000     0.942000000000     0.441750000000     0          
T        Si     0.797800000000     0.943500000000     0.438700000000     0          
T        Si     0.557200000000     0.000000000000     0.312250000000     0          
T        Si     0.942000000000     0.942000000000     0.309650000000     0          
T        Si     0.888500000000     0.888500000000     0.402300000000     0          
T        Si     0.592600000000     0.907400000000     0.375000000000     0          
T        Si     0.942000000000     0.682300000000     0.441750000000     0          
T        Si     0.943500000000     0.797800000000     0.438700000000     0          
T        Si     0.907400000000     0.592600000000     0.375000000000     0          
T        Si     0.317700000000     0.942000000000     0.441750000000     0          
T        Si     0.202200000000     0.943500000000     0.438700000000     0          
T        Si     0.407400000000     0.907400000000     0.375000000000     0          
T        Si     0.058000000000     0.317700000000     0.441750000000     0          
T        Si     0.056500000000     0.202200000000     0.438700000000     0          
T        Si     0.092600000000     0.407400000000     0.375000000000     0          
T        Si     0.682300000000     0.058000000000     0.441750000000     0          
T        Si     0.797800000000     0.056500000000     0.438700000000     0          
T        Si     0.592600000000     0.092600000000     0.375000000000     0          
T        Si     0.942000000000     0.317700000000     0.058250000000     0          
T        Si     0.943500000000     0.202200000000     0.061300000000     0          
T        Si     0.907400000000     0.407400000000     0.125000000000     0          
T        Si     0.682300000000     0.942000000000     0.058250000000     0          
T        Si     0.797800000000     0.943500000000     0.061300000000     0          
T        Si     0.592600000000     0.907400000000     0.125000000000     0          
T        Si     0.058000000000     0.682300000000     0.058250000000     0          
T        Si     0.056500000000     0.797800000000     0.061300000000     0          
T        Si     0.092600000000     0.592600000000     0.125000000000     0          
T        Si     0.317700000000     0.058000000000     0.058250000000     0          
T        Si     0.202200000000     0.056500000000     0.061300000000     0          
T        Si     0.407400000000     0.092600000000     0.125000000000     0          
T        Si     0.558000000000     0.817700000000     0.308250000000     0          
T        Si     0.556500000000     0.702200000000     0.311300000000     0          
T        Si     0.500000000000     0.942800000000     0.437750000000     0          
T        Si     0.558000000000     0.558000000000     0.440350000000     0          
T        Si     0.611500000000     0.611500000000     0.347700000000     0          
T        Si     0.559100000000     0.559100000000     0.250000000000     0          
T        Si     0.182300000000     0.558000000000     0.308250000000     0          
T        Si     0.297800000000     0.556500000000     0.311300000000     0          
T        Si     0.057200000000     0.500000000000     0.437750000000     0          
T        Si     0.442000000000     0.558000000000     0.440350000000     0          
T        Si     0.388500000000     0.611500000000     0.347700000000     0          
T        Si     0.440900000000     0.559100000000     0.250000000000     0          
T        Si     0.442000000000     0.182300000000     0.308250000000     0          
T        Si     0.443500000000     0.297800000000     0.311300000000     0          
T        Si     0.500000000000     0.057200000000     0.437750000000     0          
T        Si     0.442000000000     0.442000000000     0.440350000000     0          
T        Si     0.388500000000     0.388500000000     0.347700000000     0          
T        Si     0.440900000000     0.440900000000     0.250000000000     0          
T        Si     0.817700000000     0.442000000000     0.308250000000     0          
T        Si     0.702200000000     0.443500000000     0.311300000000     0          
T        Si     0.942800000000     0.500000000000     0.437750000000     0          
T        Si     0.558000000000     0.442000000000     0.440350000000     0          
T        Si     0.611500000000     0.388500000000     0.347700000000     0          
T        Si     0.559100000000     0.440900000000     0.250000000000     0          
T        Si     0.558000000000     0.182300000000     0.191750000000     0          
T        Si     0.556500000000     0.297800000000     0.188700000000     0          
T        Si     0.500000000000     0.057200000000     0.062250000000     0          
T        Si     0.558000000000     0.442000000000     0.059650000000     0          
T        Si     0.611500000000     0.388500000000     0.152300000000     0          
T        Si     0.817700000000     0.558000000000     0.191750000000     0          
T        Si     0.702200000000     0.556500000000     0.188700000000     0          
T        Si     0.942800000000     0.500000000000     0.062250000000     0          
T        Si     0.558000000000     0.558000000000     0.059650000000     0          
T        Si     0.611500000000     0.611500000000     0.152300000000     0          
T        Si     0.442000000000     0.817700000000     0.191750000000     0          
T        Si     0.443500000000     0.702200000000     0.188700000000     0          
T        Si     0.500000000000     0.942800000000     0.062250000000     0          
T        Si     0.442000000000     0.558000000000     0.059650000000     0          
T        Si     0.388500000000     0.611500000000     0.152300000000     0          
T        Si     0.182300000000     0.442000000000     0.191750000000     0          
T        Si     0.297800000000     0.443500000000     0.188700000000     0          
T        Si     0.057200000000     0.500000000000     0.062250000000     0          
T        Si     0.442000000000     0.442000000000     0.059650000000     0          
T        Si     0.388500000000     0.388500000000     0.152300000000     0          
T        Si     0.442000000000     0.182300000000     0.191750000000     0          
T        Si     0.443500000000     0.297800000000     0.188700000000     0          
T        Si     0.817700000000     0.442000000000     0.191750000000     0          
T        Si     0.702200000000     0.443500000000     0.188700000000     0          
T        Si     0.558000000000     0.817700000000     0.191750000000     0          
T        Si     0.556500000000     0.702200000000     0.188700000000     0          
T        Si     0.182300000000     0.558000000000     0.191750000000     0          
T        Si     0.297800000000     0.556500000000     0.188700000000     0          
T        Si     0.442000000000     0.817700000000     0.308250000000     0          
T        Si     0.443500000000     0.702200000000     0.311300000000     0          
T        Si     0.182300000000     0.442000000000     0.308250000000     0          
T        Si     0.297800000000     0.443500000000     0.311300000000     0          
T        Si     0.558000000000     0.182300000000     0.308250000000     0          
T        Si     0.556500000000     0.297800000000     0.311300000000     0          
T        Si     0.817700000000     0.558000000000     0.308250000000     0          
T        Si     0.702200000000     0.556500000000     0.311300000000     0          
T        Si     0.058000000000     0.317700000000     0.558250000000     0          
T        Si     0.056500000000     0.202200000000     0.561300000000     0          
T        Si     0.000000000000     0.442800000000     0.687750000000     0          
T        Si     0.058000000000     0.058000000000     0.690350000000     0          
T        Si     0.111500000000     0.111500000000     0.597700000000     0          
T        Si     0.092600000000     0.407400000000     0.625000000000     0          
T        Si     0.059100000000     0.059100000000     0.500000000000     0          
T        Si     0.682300000000     0.058000000000     0.558250000000     0          
T        Si     0.797800000000     0.056500000000     0.561300000000     0          
T        Si     0.557200000000     0.000000000000     0.687750000000     0          
T        Si     0.942000000000     0.058000000000     0.690350000000     0          
T        Si     0.888500000000     0.111500000000     0.597700000000     0          
T        Si     0.592600000000     0.092600000000     0.625000000000     0          
T        Si     0.940900000000     0.059100000000     0.500000000000     0          
T        Si     0.942000000000     0.682300000000     0.558250000000     0          
T        Si     0.943500000000     0.797800000000     0.561300000000     0          
T        Si     0.000000000000     0.557200000000     0.687750000000     0          
T        Si     0.942000000000     0.942000000000     0.690350000000     0          
T        Si     0.888500000000     0.888500000000     0.597700000000     0          
T        Si     0.907400000000     0.592600000000     0.625000000000     0          
T        Si     0.940900000000     0.940900000000     0.500000000000     0          
T        Si     0.317700000000     0.942000000000     0.558250000000     0          
T        Si     0.202200000000     0.943500000000     0.561300000000     0          
T        Si     0.442800000000     0.000000000000     0.687750000000     0          
T        Si     0.058000000000     0.942000000000     0.690350000000     0          
T        Si     0.111500000000     0.888500000000     0.597700000000     0          
T        Si     0.407400000000     0.907400000000     0.625000000000     0          
T        Si     0.059100000000     0.940900000000     0.500000000000     0          
T        Si     0.058000000000     0.682300000000     0.941750000000     0          
T        Si     0.056500000000     0.797800000000     0.938700000000     0          
T        Si     0.000000000000     0.557200000000     0.812250000000     0          
T        Si     0.058000000000     0.942000000000     0.809650000000     0          
T        Si     0.111500000000     0.888500000000     0.902300000000     0          
T        Si     0.092600000000     0.592600000000     0.875000000000     0          
T        Si     0.317700000000     0.058000000000     0.941750000000     0          
T        Si     0.202200000000     0.056500000000     0.938700000000     0          
T        Si     0.442800000000     0.000000000000     0.812250000000     0          
T        Si     0.058000000000     0.058000000000     0.809650000000     0          
T        Si     0.111500000000     0.111500000000     0.902300000000     0          
T        Si     0.407400000000     0.092600000000     0.875000000000     0          
T        Si     0.942000000000     0.317700000000     0.941750000000     0          
T        Si     0.943500000000     0.202200000000     0.938700000000     0          
T        Si     0.000000000000     0.442800000000     0.812250000000     0          
T        Si     0.942000000000     0.058000000000     0.809650000000     0          
T        Si     0.888500000000     0.111500000000     0.902300000000     0          
T        Si     0.907400000000     0.407400000000     0.875000000000     0          
T        Si     0.682300000000     0.942000000000     0.941750000000     0          
T        Si     0.797800000000     0.943500000000     0.938700000000     0          
T        Si     0.557200000000     0.000000000000     0.812250000000     0          
T        Si     0.942000000000     0.942000000000     0.809650000000     0          
T        Si     0.888500000000     0.888500000000     0.902300000000     0          
T        Si     0.592600000000     0.907400000000     0.875000000000     0          
T        Si     0.942000000000     0.682300000000     0.941750000000     0          
T        Si     0.943500000000     0.797800000000     0.938700000000     0          
T        Si     0.907400000000     0.592600000000     0.875000000000     0          
T        Si     0.317700000000     0.942000000000     0.941750000000     0          
T        Si     0.202200000000     0.943500000000     0.938700000000     0          
T        Si     0.407400000000     0.907400000000     0.875000000000     0          
T        Si     0.058000000000     0.317700000000     0.941750000000     0          
T        Si     0.056500000000     0.202200000000     0.938700000000     0          
T        Si     0.092600000000     0.407400000000     0.875000000000     0          
T        Si     0.682300000000     0.058000000000     0.941750000000     0          
T        Si     0.797800000000     0.056500000000     0.938700000000     0          
T        Si     0.592600000000     0.092600000000     0.875000000000     0          
T        Si     0.942000000000     0.317700000000     0.558250000000     0          
T        Si     0.943500000000     0.202200000000     0.561300000000     0          
T        Si     0.907400000000     0.407400000000     0.625000000000     0          
T        Si     0.682300000000     0.942000000000     0.558250000000     0          
T        Si     0.797800000000     0.943500000000     0.561300000000     0          
T        Si     0.592600000000     0.907400000000     0.625000000000     0          
T        Si     0.058000000000     0.682300000000     0.558250000000     0          
T        Si     0.056500000000     0.797800000000     0.561300000000     0          
T        Si     0.092600000000     0.592600000000     0.625000000000     0          
T        Si     0.317700000000     0.058000000000     0.558250000000     0          
T        Si     0.202200000000     0.056500000000     0.561300000000     0          
T        Si     0.407400000000     0.092600000000     0.625000000000     0          
T        Si     0.558000000000     0.817700000000     0.808250000000     0          
T        Si     0.556500000000     0.702200000000     0.811300000000     0          
T        Si     0.500000000000     0.942800000000     0.937750000000     0          
T        Si     0.558000000000     0.558000000000     0.940350000000     0          
T        Si     0.611500000000     0.611500000000     0.847700000000     0          
T        Si     0.559100000000     0.559100000000     0.750000000000     0          
T        Si     0.182300000000     0.558000000000     0.808250000000     0          
T        Si     0.297800000000     0.556500000000     0.811300000000     0          
T        Si     0.057200000000     0.500000000000     0.937750000000     0          
T        Si     0.442000000000     0.558000000000     0.940350000000     0          
T        Si     0.388500000000     0.611500000000     0.847700000000     0          
T        Si     0.440900000000     0.559100000000     0.750000000000     0          
T        Si     0.442000000000     0.182300000000     0.808250000000     0          
T        Si     0.443500000000     0.297800000000     0.811300000000     0          
T        Si     0.500000000000     0.057200000000     0.937750000000     0          
T        Si     0.442000000000     0.442000000000     0.940350000000     0          
T        Si     0.388500000000     0.388500000000     0.847700000000     0          
T        Si     0.440900000000     0.440900000000     0.750000000000     0          
T        Si     0.817700000000     0.442000000000     0.808250000000     0          
T        Si     0.702200000000     0.443500000000     0.811300000000     0          
T        Si     0.942800000000     0.500000000000     0.937750000000     0          
T        Si     0.558000000000     0.442000000000     0.940350000000     0          
T        Si     0.611500000000     0.388500000000     0.847700000000     0          
T        Si     0.559100000000     0.440900000000     0.750000000000     0          
T        Si     0.558000000000     0.182300000000     0.691750000000     0          
T        Si     0.556500000000     0.297800000000     0.688700000000     0          
T        Si     0.500000000000     0.057200000000     0.562250000000     0          
T        Si     0.558000000000     0.442000000000     0.559650000000     0          
T        Si     0.611500000000     0.388500000000     0.652300000000     0          
T        Si     0.817700000000     0.558000000000     0.691750000000     0          
T        Si     0.702200000000     0.556500000000     0.688700000000     0          
T        Si     0.942800000000     0.500000000000     0.562250000000     0          
T        Si     0.558000000000     0.558000000000     0.559650000000     0          
T        Si     0.611500000000     0.611500000000     0.652300000000     0          
T        Si     0.442000000000     0.817700000000     0.691750000000     0          
T        Si     0.443500000000     0.702200000000     0.688700000000     0          
T        Si     0.500000000000     0.942800000000     0.562250000000     0          
T        Si     0.442000000000     0.558000000000     0.559650000000     0          
T        Si     0.388500000000     0.611500000000     0.652300000000     0          
T        Si     0.182300000000     0.442000000000     0.691750000000     0          
T        Si     0.297800000000     0.443500000000     0.688700000000     0          
T        Si     0.057200000000     0.500000000000     0.562250000000     0          
T        Si     0.442000000000     0.442000000000     0.559650000000     0          
T        Si     0.388500000000     0.388500000000     0.652300000000     0          
T        Si     0.442000000000     0.182300000000     0.691750000000     0          
T        Si     0.443500000000     0.297800000000     0.688700000000     0          
T        Si     0.817700000000     0.442000000000     0.691750000000     0          
T        Si     0.702200000000     0.443500000000     0.688700000000     0          
T        Si     0.558000000000     0.817700000000     0.691750000000     0          
T        Si     0.556500000000     0.702200000000     0.688700000000     0          
T        Si     0.182300000000     0.558000000000     0.691750000000     0          
T        Si     0.297800000000     0.556500000000     0.688700000000     0          
T        Si     0.442000000000     0.817700000000     0.808250000000     0          
T        Si     0.443500000000     0.702200000000     0.811300000000     0          
T        Si     0.182300000000     0.442000000000     0.808250000000     0          
T        Si     0.297800000000     0.443500000000     0.811300000000     0          
T        Si     0.558000000000     0.182300000000     0.808250000000     0          
T        Si     0.556500000000     0.297800000000     0.811300000000     0          
T        Si     0.817700000000     0.558000000000     0.808250000000     0          
T        Si     0.702200000000     0.556500000000     0.811300000000     0          
O        O      0.078900000000     0.323400000000     0.000000000000     0          
O        O      0.000000000000     0.334100000000     0.059300000000     0          
O        O      0.063200000000     0.260300000000     0.076650000000     0          
O        O      0.088600000000     0.353600000000     0.097100000000     0          
O        O      0.098700000000     0.170100000000     0.091200000000     0          
O        O      0.065400000000     0.195800000000     0.000000000000     0          
O        O      0.000000000000     0.185200000000     0.075050000000     0          
O        O      0.070400000000     0.070400000000     0.250000000000     0          
O        O      0.000000000000     0.069700000000     0.178550000000     0          
O        O      0.092300000000     0.092300000000     0.153350000000     0          
O        O      0.083000000000     0.083000000000     0.051500000000     0          
O        O      0.086400000000     0.450900000000     0.082300000000     0          
O        O      0.000000000000     0.070000000000     0.000000000000     0          
O        O      0.000000000000     0.500000000000     0.167700000000     0          
O        O      0.000000000000     0.442400000000     0.250000000000     0          
O        O      0.676600000000     0.078900000000     0.000000000000     0          
O        O      0.665900000000     0.000000000000     0.059300000000     0          
O        O      0.739700000000     0.063200000000     0.076650000000     0          
O        O      0.646400000000     0.088600000000     0.097100000000     0          
O        O      0.829900000000     0.098700000000     0.091200000000     0          
O        O      0.804200000000     0.065400000000     0.000000000000     0          
O        O      0.814800000000     0.000000000000     0.075050000000     0          
O        O      0.929600000000     0.070400000000     0.250000000000     0          
O        O      0.930300000000     0.000000000000     0.178550000000     0          
O        O      0.907700000000     0.092300000000     0.153350000000     0          
O        O      0.917000000000     0.083000000000     0.051500000000     0          
O        O      0.549100000000     0.086400000000     0.082300000000     0          
O        O      0.930000000000     0.000000000000     0.000000000000     0          
O        O      0.500000000000     0.000000000000     0.167700000000     0          
O        O      0.557600000000     0.000000000000     0.250000000000     0          
O        O      0.921100000000     0.676600000000     0.000000000000     0          
O        O      0.000000000000     0.665900000000     0.059300000000     0          
O        O      0.936800000000     0.739700000000     0.076650000000     0          
O        O      0.911400000000     0.646400000000     0.097100000000     0          
O        O      0.901300000000     0.829900000000     0.091200000000     0          
O        O      0.934600000000     0.804200000000     0.000000000000     0          
O        O      0.000000000000     0.814800000000     0.075050000000     0          
O        O      0.929600000000     0.929600000000     0.250000000000     0          
O        O      0.000000000000     0.930300000000     0.178550000000     0          
O        O      0.907700000000     0.907700000000     0.153350000000     0          
O        O      0.917000000000     0.917000000000     0.051500000000     0          
O        O      0.913600000000     0.549100000000     0.082300000000     0          
O        O      0.000000000000     0.930000000000     0.000000000000     0          
O        O      0.000000000000     0.557600000000     0.250000000000     0          
O        O      0.323400000000     0.921100000000     0.000000000000     0          
O        O      0.334100000000     0.000000000000     0.059300000000     0          
O        O      0.260300000000     0.936800000000     0.076650000000     0          
O        O      0.353600000000     0.911400000000     0.097100000000     0          
O        O      0.170100000000     0.901300000000     0.091200000000     0          
O        O      0.195800000000     0.934600000000     0.000000000000     0          
O        O      0.185200000000     0.000000000000     0.075050000000     0          
O        O      0.070400000000     0.929600000000     0.250000000000     0          
O        O      0.069700000000     0.000000000000     0.178550000000     0          
O        O      0.092300000000     0.907700000000     0.153350000000     0          
O        O      0.083000000000     0.917000000000     0.051500000000     0          
O        O      0.450900000000     0.913600000000     0.082300000000     0          
O        O      0.070000000000     0.000000000000     0.000000000000     0          
O        O      0.442400000000     0.000000000000     0.250000000000     0          
O        O      0.078900000000     0.676600000000     0.000000000000     0          
O        O      0.000000000000     0.665900000000     0.440700000000     0          
O        O      0.063200000000     0.739700000000     0.423350000000     0          
O        O      0.088600000000     0.646400000000     0.402900000000     0          
O        O      0.098700000000     0.829900000000     0.408800000000     0          
O        O      0.065400000000     0.804200000000     0.000000000000     0          
O        O      0.000000000000     0.814800000000     0.424950000000     0          
O        O      0.000000000000     0.930300000000     0.321450000000     0          
O        O      0.092300000000     0.907700000000     0.346650000000     0          
O        O      0.083000000000     0.917000000000     0.448500000000     0          
O        O      0.086400000000     0.549100000000     0.417700000000     0          
O        O      0.000000000000     0.500000000000     0.332300000000     0          
O        O      0.323400000000     0.078900000000     0.000000000000     0          
O        O      0.334100000000     0.000000000000     0.440700000000     0          
O        O      0.260300000000     0.063200000000     0.423350000000     0          
O        O      0.353600000000     0.088600000000     0.402900000000     0          
O        O      0.170100000000     0.098700000000     0.408800000000     0          
O        O      0.195800000000     0.065400000000     0.000000000000     0          
O        O      0.185200000000     0.000000000000     0.424950000000     0          
O        O      0.069700000000     0.000000000000     0.321450000000     0          
O        O      0.092300000000     0.092300000000     0.346650000000     0          
O        O      0.083000000000     0.083000000000     0.448500000000     0          
O        O      0.450900000000     0.086400000000     0.417700000000     0          
O        O      0.500000000000     0.000000000000     0.332300000000     0          
O        O      0.921100000000     0.323400000000     0.000000000000     0          
O        O      0.000000000000     0.334100000000     0.440700000000     0          
O        O      0.936800000000     0.260300000000     0.423350000000     0          
O        O      0.911400000000     0.353600000000     0.402900000000     0          
O        O      0.901300000000     0.170100000000     0.408800000000     0          
O        O      0.934600000000     0.195800000000     0.000000000000     0          
O        O      0.000000000000     0.185200000000     0.424950000000     0          
O        O      0.000000000000     0.069700000000     0.321450000000     0          
O        O      0.907700000000     0.092300000000     0.346650000000     0          
O        O      0.917000000000     0.083000000000     0.448500000000     0          
O        O      0.913600000000     0.450900000000     0.417700000000     0          
O        O      0.676600000000     0.921100000000     0.000000000000     0          
O        O      0.665900000000     0.000000000000     0.440700000000     0          
O        O      0.739700000000     0.936800000000     0.423350000000     0          
O        O      0.646400000000     0.911400000000     0.402900000000     0          
O        O      0.829900000000     0.901300000000     0.408800000000     0          
O        O      0.804200000000     0.934600000000     0.000000000000     0          
O        O      0.814800000000     0.000000000000     0.424950000000     0          
O        O      0.930300000000     0.000000000000     0.321450000000     0          
O        O      0.907700000000     0.907700000000     0.346650000000     0          
O        O      0.917000000000     0.917000000000     0.448500000000     0          
O        O      0.549100000000     0.913600000000     0.417700000000     0          
O        O      0.936800000000     0.739700000000     0.423350000000     0          
O        O      0.911400000000     0.646400000000     0.402900000000     0          
O        O      0.901300000000     0.829900000000     0.408800000000     0          
O        O      0.913600000000     0.549100000000     0.417700000000     0          
O        O      0.260300000000     0.936800000000     0.423350000000     0          
O        O      0.353600000000     0.911400000000     0.402900000000     0          
O        O      0.170100000000     0.901300000000     0.408800000000     0          
O        O      0.450900000000     0.913600000000     0.417700000000     0          
O        O      0.063200000000     0.260300000000     0.423350000000     0          
O        O      0.088600000000     0.353600000000     0.402900000000     0          
O        O      0.098700000000     0.170100000000     0.408800000000     0          
O        O      0.086400000000     0.450900000000     0.417700000000     0          
O        O      0.739700000000     0.063200000000     0.423350000000     0          
O        O      0.646400000000     0.088600000000     0.402900000000     0          
O        O      0.829900000000     0.098700000000     0.408800000000     0          
O        O      0.549100000000     0.086400000000     0.417700000000     0          
O        O      0.936800000000     0.260300000000     0.076650000000     0          
O        O      0.911400000000     0.353600000000     0.097100000000     0          
O        O      0.901300000000     0.170100000000     0.091200000000     0          
O        O      0.913600000000     0.450900000000     0.082300000000     0          
O        O      0.739700000000     0.936800000000     0.076650000000     0          
O        O      0.646400000000     0.911400000000     0.097100000000     0          
O        O      0.829900000000     0.901300000000     0.091200000000     0          
O        O      0.549100000000     0.913600000000     0.082300000000     0          
O        O      0.063200000000     0.739700000000     0.076650000000     0          
O        O      0.088600000000     0.646400000000     0.097100000000     0          
O        O      0.098700000000     0.829900000000     0.091200000000     0          
O        O      0.086400000000     0.549100000000     0.082300000000     0          
O        O      0.260300000000     0.063200000000     0.076650000000     0          
O        O      0.353600000000     0.088600000000     0.097100000000     0          
O        O      0.170100000000     0.098700000000     0.091200000000     0          
O        O      0.450900000000     0.086400000000     0.082300000000     0          
O        O      0.578900000000     0.823400000000     0.250000000000     0          
O        O      0.500000000000     0.834100000000     0.309300000000     0          
O        O      0.563200000000     0.760300000000     0.326650000000     0          
O        O      0.588600000000     0.853600000000     0.347100000000     0          
O        O      0.598700000000     0.670100000000     0.341200000000     0          
O        O      0.565400000000     0.695800000000     0.250000000000     0          
O        O      0.500000000000     0.685200000000     0.325050000000     0          
O        O      0.570400000000     0.570400000000     0.000000000000     0          
O        O      0.500000000000     0.569700000000     0.428550000000     0          
O        O      0.592300000000     0.592300000000     0.403350000000     0          
O        O      0.583000000000     0.583000000000     0.301500000000     0          
O        O      0.586400000000     0.950900000000     0.332300000000     0          
O        O      0.500000000000     0.570000000000     0.250000000000     0          
O        O      0.500000000000     0.000000000000     0.417700000000     0          
O        O      0.500000000000     0.942400000000     0.000000000000     0          
O        O      0.176600000000     0.578900000000     0.250000000000     0          
O        O      0.165900000000     0.500000000000     0.309300000000     0          
O        O      0.239700000000     0.563200000000     0.326650000000     0          
O        O      0.146400000000     0.588600000000     0.347100000000     0          
O        O      0.329900000000     0.598700000000     0.341200000000     0          
O        O      0.304200000000     0.565400000000     0.250000000000     0          
O        O      0.314800000000     0.500000000000     0.325050000000     0          
O        O      0.429600000000     0.570400000000     0.000000000000     0          
O        O      0.430300000000     0.500000000000     0.428550000000     0          
O        O      0.407700000000     0.592300000000     0.403350000000     0          
O        O      0.417000000000     0.583000000000     0.301500000000     0          
O        O      0.049100000000     0.586400000000     0.332300000000     0          
O        O      0.430000000000     0.500000000000     0.250000000000     0          
O        O      0.000000000000     0.500000000000     0.417700000000     0          
O        O      0.057600000000     0.500000000000     0.000000000000     0          
O        O      0.421100000000     0.176600000000     0.250000000000     0          
O        O      0.500000000000     0.165900000000     0.309300000000     0          
O        O      0.436800000000     0.239700000000     0.326650000000     0          
O        O      0.411400000000     0.146400000000     0.347100000000     0          
O        O      0.401300000000     0.329900000000     0.341200000000     0          
O        O      0.434600000000     0.304200000000     0.250000000000     0          
O        O      0.500000000000     0.314800000000     0.325050000000     0          
O        O      0.429600000000     0.429600000000     0.000000000000     0          
O        O      0.500000000000     0.430300000000     0.428550000000     0          
O        O      0.407700000000     0.407700000000     0.403350000000     0          
O        O      0.417000000000     0.417000000000     0.301500000000     0          
O        O      0.413600000000     0.049100000000     0.332300000000     0          
O        O      0.500000000000     0.430000000000     0.250000000000     0          
O        O      0.500000000000     0.057600000000     0.000000000000     0          
O        O      0.823400000000     0.421100000000     0.250000000000     0          
O        O      0.834100000000     0.500000000000     0.309300000000     0          
O        O      0.760300000000     0.436800000000     0.326650000000     0          
O        O      0.853600000000     0.411400000000     0.347100000000     0          
O        O      0.670100000000     0.401300000000     0.341200000000     0          
O        O      0.695800000000     0.434600000000     0.250000000000     0          
O        O      0.685200000000     0.500000000000     0.325050000000     0          
O        O      0.570400000000     0.429600000000     0.000000000000     0          
O        O      0.569700000000     0.500000000000     0.428550000000     0          
O        O      0.592300000000     0.407700000000     0.403350000000     0          
O        O      0.583000000000     0.417000000000     0.301500000000     0          
O        O      0.950900000000     0.413600000000     0.332300000000     0          
O        O      0.570000000000     0.500000000000     0.250000000000     0          
O        O      0.942400000000     0.500000000000     0.000000000000     0          
O        O      0.578900000000     0.176600000000     0.250000000000     0          
O        O      0.500000000000     0.165900000000     0.190700000000     0          
O        O      0.563200000000     0.239700000000     0.173350000000     0          
O        O      0.588600000000     0.146400000000     0.152900000000     0          
O        O      0.598700000000     0.329900000000     0.158800000000     0          
O        O      0.565400000000     0.304200000000     0.250000000000     0          
O        O      0.500000000000     0.314800000000     0.174950000000     0          
O        O      0.500000000000     0.430300000000     0.071450000000     0          
O        O      0.592300000000     0.407700000000     0.096650000000     0          
O        O      0.583000000000     0.417000000000     0.198500000000     0          
O        O      0.586400000000     0.049100000000     0.167700000000     0          
O        O      0.500000000000     0.000000000000     0.082300000000     0          
O        O      0.823400000000     0.578900000000     0.250000000000     0          
O        O      0.834100000000     0.500000000000     0.190700000000     0          
O        O      0.760300000000     0.563200000000     0.173350000000     0          
O        O      0.853600000000     0.588600000000     0.152900000000     0          
O        O      0.670100000000     0.598700000000     0.158800000000     0          
O        O      0.695800000000     0.565400000000     0.250000000000     0          
O        O      0.685200000000     0.500000000000     0.174950000000     0          
O        O      0.569700000000     0.500000000000     0.071450000000     0          
O        O      0.592300000000     0.592300000000     0.096650000000     0          
O        O      0.583000000000     0.583000000000     0.198500000000     0          
O        O      0.950900000000     0.586400000000     0.167700000000     0          
O        O      0.000000000000     0.500000000000     0.082300000000     0          
O        O      0.421100000000     0.823400000000     0.250000000000     0          
O        O      0.500000000000     0.834100000000     0.190700000000     0          
O        O      0.436800000000     0.760300000000     0.173350000000     0          
O        O      0.411400000000     0.853600000000     0.152900000000     0          
O        O      0.401300000000     0.670100000000     0.158800000000     0          
O        O      0.434600000000     0.695800000000     0.250000000000     0          
O        O      0.500000000000     0.685200000000     0.174950000000     0          
O        O      0.500000000000     0.569700000000     0.071450000000     0          
O        O      0.407700000000     0.592300000000     0.096650000000     0          
O        O      0.417000000000     0.583000000000     0.198500000000     0          
O        O      0.413600000000     0.950900000000     0.167700000000     0          
O        O      0.176600000000     0.421100000000     0.250000000000     0          
O        O      0.165900000000     0.500000000000     0.190700000000     0          
O        O      0.239700000000     0.436800000000     0.173350000000     0          
O        O      0.146400000000     0.411400000000     0.152900000000     0          
O        O      0.329900000000     0.401300000000     0.158800000000     0          
O        O      0.304200000000     0.434600000000     0.250000000000     0          
O        O      0.314800000000     0.500000000000     0.174950000000     0          
O        O      0.430300000000     0.500000000000     0.071450000000     0          
O        O      0.407700000000     0.407700000000     0.096650000000     0          
O        O      0.417000000000     0.417000000000     0.198500000000     0          
O        O      0.049100000000     0.413600000000     0.167700000000     0          
O        O      0.436800000000     0.239700000000     0.173350000000     0          
O        O      0.411400000000     0.146400000000     0.152900000000     0          
O        O      0.401300000000     0.329900000000     0.158800000000     0          
O        O      0.413600000000     0.049100000000     0.167700000000     0          
O        O      0.760300000000     0.436800000000     0.173350000000     0          
O        O      0.853600000000     0.411400000000     0.152900000000     0          
O        O      0.670100000000     0.401300000000     0.158800000000     0          
O        O      0.950900000000     0.413600000000     0.167700000000     0          
O        O      0.563200000000     0.760300000000     0.173350000000     0          
O        O      0.588600000000     0.853600000000     0.152900000000     0          
O        O      0.598700000000     0.670100000000     0.158800000000     0          
O        O      0.586400000000     0.950900000000     0.167700000000     0          
O        O      0.239700000000     0.563200000000     0.173350000000     0          
O        O      0.146400000000     0.588600000000     0.152900000000     0          
O        O      0.329900000000     0.598700000000     0.158800000000     0          
O        O      0.049100000000     0.586400000000     0.167700000000     0          
O        O      0.436800000000     0.760300000000     0.326650000000     0          
O        O      0.411400000000     0.853600000000     0.347100000000     0          
O        O      0.401300000000     0.670100000000     0.341200000000     0          
O        O      0.413600000000     0.950900000000     0.332300000000     0          
O        O      0.239700000000     0.436800000000     0.326650000000     0          
O        O      0.146400000000     0.411400000000     0.347100000000     0          
O        O      0.329900000000     0.401300000000     0.341200000000     0          
O        O      0.049100000000     0.413600000000     0.332300000000     0          
O        O      0.563200000000     0.239700000000     0.326650000000     0          
O        O      0.588600000000     0.146400000000     0.347100000000     0          
O        O      0.598700000000     0.329900000000     0.341200000000     0          
O        O      0.586400000000     0.049100000000     0.332300000000     0          
O        O      0.760300000000     0.563200000000     0.326650000000     0          
O        O      0.853600000000     0.588600000000     0.347100000000     0          
O        O      0.670100000000     0.598700000000     0.341200000000     0          
O        O      0.950900000000     0.586400000000     0.332300000000     0          
O        O      0.078900000000     0.323400000000     0.500000000000     0          
O        O      0.000000000000     0.334100000000     0.559300000000     0          
O        O      0.063200000000     0.260300000000     0.576650000000     0          
O        O      0.088600000000     0.353600000000     0.597100000000     0          
O        O      0.098700000000     0.170100000000     0.591200000000     0          
O        O      0.065400000000     0.195800000000     0.500000000000     0          
O        O      0.000000000000     0.185200000000     0.575050000000     0          
O        O      0.070400000000     0.070400000000     0.750000000000     0          
O        O      0.000000000000     0.069700000000     0.678550000000     0          
O        O      0.092300000000     0.092300000000     0.653350000000     0          
O        O      0.083000000000     0.083000000000     0.551500000000     0          
O        O      0.086400000000     0.450900000000     0.582300000000     0          
O        O      0.000000000000     0.070000000000     0.500000000000     0          
O        O      0.000000000000     0.500000000000     0.667700000000     0          
O        O      0.000000000000     0.442400000000     0.750000000000     0          
O        O      0.676600000000     0.078900000000     0.500000000000     0          
O        O      0.665900000000     0.000000000000     0.559300000000     0          
O        O      0.739700000000     0.063200000000     0.576650000000     0          
O        O      0.646400000000     0.088600000000     0.597100000000     0          
O        O      0.829900000000     0.098700000000     0.591200000000     0          
O        O      0.804200000000     0.065400000000     0.500000000000     0          
O        O      0.814800000000     0.000000000000     0.575050000000     0          
O        O      0.929600000000     0.070400000000     0.750000000000     0          
O        O      0.930300000000     0.000000000000     0.678550000000     0          
O        O      0.907700000000     0.092300000000     0.653350000000     0          
O        O      0.917000000000     0.083000000000     0.551500000000     0          
O        O      0.549100000000     0.086400000000     0.582300000000     0          
O        O      0.930000000000     0.000000000000     0.500000000000     0          
O        O      0.500000000000     0.000000000000     0.667700000000     0          
O        O      0.557600000000     0.000000000000     0.750000000000     0          
O        O      0.921100000000     0.676600000000     0.500000000000     0          
O        O      0.000000000000     0.665900000000     0.559300000000     0          
O        O      0.936800000000     0.739700000000     0.576650000000     0          
O        O      0.911400000000     0.646400000000     0.597100000000     0          
O        O      0.901300000000     0.829900000000     0.591200000000     0          
O        O      0.934600000000     0.804200000000     0.500000000000     0          
O        O      0.000000000000     0.814800000000     0.575050000000     0          
O        O      0.929600000000     0.929600000000     0.750000000000     0          
O        O      0.000000000000     0.930300000000     0.678550000000     0          
O        O      0.907700000000     0.907700000000     0.653350000000     0          
O        O      0.917000000000     0.917000000000     0.551500000000     0          
O        O      0.913600000000     0.549100000000     0.582300000000     0          
O        O      0.000000000000     0.930000000000     0.500000000000     0          
O        O      0.000000000000     0.557600000000     0.750000000000     0          
O        O      0.323400000000     0.921100000000     0.500000000000     0          
O        O      0.334100000000     0.000000000000     0.559300000000     0          
O        O      0.260300000000     0.936800000000     0.576650000000     0          
O        O      0.353600000000     0.911400000000     0.597100000000     0          
O        O      0.170100000000     0.901300000000     0.591200000000     0          
O        O      0.195800000000     0.934600000000     0.500000000000     0          
O        O      0.185200000000     0.000000000000     0.575050000000     0          
O        O      0.070400000000     0.929600000000     0.750000000000     0          
O        O      0.069700000000     0.000000000000     0.678550000000     0          
O        O      0.092300000000     0.907700000000     0.653350000000     0          
O        O      0.083000000000     0.917000000000     0.551500000000     0          
O        O      0.450900000000     0.913600000000     0.582300000000     0          
O        O      0.070000000000     0.000000000000     0.500000000000     0          
O        O      0.442400000000     0.000000000000     0.750000000000     0          
O        O      0.078900000000     0.676600000000     0.500000000000     0          
O        O      0.000000000000     0.665900000000     0.940700000000     0          
O        O      0.063200000000     0.739700000000     0.923350000000     0          
O        O      0.088600000000     0.646400000000     0.902900000000     0          
O        O      0.098700000000     0.829900000000     0.908800000000     0          
O        O      0.065400000000     0.804200000000     0.500000000000     0          
O        O      0.000000000000     0.814800000000     0.924950000000     0          
O        O      0.000000000000     0.930300000000     0.821450000000     0          
O        O      0.092300000000     0.907700000000     0.846650000000     0          
O        O      0.083000000000     0.917000000000     0.948500000000     0          
O        O      0.086400000000     0.549100000000     0.917700000000     0          
O        O      0.000000000000     0.500000000000     0.832300000000     0          
O        O      0.323400000000     0.078900000000     0.500000000000     0          
O        O      0.334100000000     0.000000000000     0.940700000000     0          
O        O      0.260300000000     0.063200000000     0.923350000000     0          
O        O      0.353600000000     0.088600000000     0.902900000000     0          
O        O      0.170100000000     0.098700000000     0.908800000000     0          
O        O      0.195800000000     0.065400000000     0.500000000000     0          
O        O      0.185200000000     0.000000000000     0.924950000000     0          
O        O      0.069700000000     0.000000000000     0.821450000000     0          
O        O      0.092300000000     0.092300000000     0.846650000000     0          
O        O      0.083000000000     0.083000000000     0.948500000000     0          
O        O      0.450900000000     0.086400000000     0.917700000000     0          
O        O      0.500000000000     0.000000000000     0.832300000000     0          
O        O      0.921100000000     0.323400000000     0.500000000000     0          
O        O      0.000000000000     0.334100000000     0.940700000000     0          
O        O      0.936800000000     0.260300000000     0.923350000000     0          
O        O      0.911400000000     0.353600000000     0.902900000000     0          
O        O      0.901300000000     0.170100000000     0.908800000000     0          
O        O      0.934600000000     0.195800000000     0.500000000000     0          
O        O      0.000000000000     0.185200000000     0.924950000000     0          
O        O      0.000000000000     0.069700000000     0.821450000000     0          
O        O      0.907700000000     0.092300000000     0.846650000000     0          
O        O      0.917000000000     0.083000000000     0.948500000000     0          
O        O      0.913600000000     0.450900000000     0.917700000000     0          
O        O      0.676600000000     0.921100000000     0.500000000000     0          
O        O      0.665900000000     0.000000000000     0.940700000000     0          
O        O      0.739700000000     0.936800000000     0.923350000000     0          
O        O      0.646400000000     0.911400000000     0.902900000000     0          
O        O      0.829900000000     0.901300000000     0.908800000000     0          
O        O      0.804200000000     0.934600000000     0.500000000000     0          
O        O      0.814800000000     0.000000000000     0.924950000000     0          
O        O      0.930300000000     0.000000000000     0.821450000000     0          
O        O      0.907700000000     0.907700000000     0.846650000000     0          
O        O      0.917000000000     0.917000000000     0.948500000000     0          
O        O      0.549100000000     0.913600000000     0.917700000000     0          
O        O      0.936800000000     0.739700000000     0.923350000000     0          
O        O      0.911400000000     0.646400000000     0.902900000000     0          
O        O      0.901300000000     0.829900000000     0.908800000000     0          
O        O      0.913600000000     0.549100000000     0.917700000000     0          
O        O      0.260300000000     0.936800000000     0.923350000000     0          
O        O      0.353600000000     0.911400000000     0.902900000000     0          
O        O      0.170100000000     0.901300000000     0.908800000000     0          
O        O      0.450900000000     0.913600000000     0.917700000000     0          
O        O      0.063200000000     0.260300000000     0.923350000000     0          
O        O      0.088600000000     0.353600000000     0.902900000000     0          
O        O      0.098700000000     0.170100000000     0.908800000000     0          
O        O      0.086400000000     0.450900000000     0.917700000000     0          
O        O      0.739700000000     0.063200000000     0.923350000000     0          
O        O      0.646400000000     0.088600000000     0.902900000000     0          
O        O      0.829900000000     0.098700000000     0.908800000000     0          
O        O      0.549100000000     0.086400000000     0.917700000000     0          
O        O      0.936800000000     0.260300000000     0.576650000000     0          
O        O      0.911400000000     0.353600000000     0.597100000000     0          
O        O      0.901300000000     0.170100000000     0.591200000000     0          
O        O      0.913600000000     0.450900000000     0.582300000000     0          
O        O      0.739700000000     0.936800000000     0.576650000000     0          
O        O      0.646400000000     0.911400000000     0.597100000000     0          
O        O      0.829900000000     0.901300000000     0.591200000000     0          
O        O      0.549100000000     0.913600000000     0.582300000000     0          
O        O      0.063200000000     0.739700000000     0.576650000000     0          
O        O      0.088600000000     0.646400000000     0.597100000000     0          
O        O      0.098700000000     0.829900000000     0.591200000000     0          
O        O      0.086400000000     0.549100000000     0.582300000000     0          
O        O      0.260300000000     0.063200000000     0.576650000000     0          
O        O      0.353600000000     0.088600000000     0.597100000000     0          
O        O      0.170100000000     0.098700000000     0.591200000000     0          
O        O      0.450900000000     0.086400000000     0.582300000000     0          
O        O      0.578900000000     0.823400000000     0.750000000000     0          
O        O      0.500000000000     0.834100000000     0.809300000000     0          
O        O      0.563200000000     0.760300000000     0.826650000000     0          
O        O      0.588600000000     0.853600000000     0.847100000000     0          
O        O      0.598700000000     0.670100000000     0.841200000000     0          
O        O      0.565400000000     0.695800000000     0.750000000000     0          
O        O      0.500000000000     0.685200000000     0.825050000000     0          
O        O      0.570400000000     0.570400000000     0.500000000000     0          
O        O      0.500000000000     0.569700000000     0.928550000000     0          
O        O      0.592300000000     0.592300000000     0.903350000000     0          
O        O      0.583000000000     0.583000000000     0.801500000000     0          
O        O      0.586400000000     0.950900000000     0.832300000000     0          
O        O      0.500000000000     0.570000000000     0.750000000000     0          
O        O      0.500000000000     0.000000000000     0.917700000000     0          
O        O      0.500000000000     0.942400000000     0.500000000000     0          
O        O      0.176600000000     0.578900000000     0.750000000000     0          
O        O      0.165900000000     0.500000000000     0.809300000000     0          
O        O      0.239700000000     0.563200000000     0.826650000000     0          
O        O      0.146400000000     0.588600000000     0.847100000000     0          
O        O      0.329900000000     0.598700000000     0.841200000000     0          
O        O      0.304200000000     0.565400000000     0.750000000000     0          
O        O      0.314800000000     0.500000000000     0.825050000000     0          
O        O      0.429600000000     0.570400000000     0.500000000000     0          
O        O      0.430300000000     0.500000000000     0.928550000000     0          
O        O      0.407700000000     0.592300000000     0.903350000000     0          
O        O      0.417000000000     0.583000000000     0.801500000000     0          
O        O      0.049100000000     0.586400000000     0.832300000000     0          
O        O      0.430000000000     0.500000000000     0.750000000000     0          
O        O      0.000000000000     0.500000000000     0.917700000000     0          
O        O      0.057600000000     0.500000000000     0.500000000000     0          
O        O      0.421100000000     0.176600000000     0.750000000000     0          
O        O      0.500000000000     0.165900000000     0.809300000000     0          
O        O      0.436800000000     0.239700000000     0.826650000000     0          
O        O      0.411400000000     0.146400000000     0.847100000000     0          
O        O      0.401300000000     0.329900000000     0.841200000000     0          
O        O      0.434600000000     0.304200000000     0.750000000000     0          
O        O      0.500000000000     0.314800000000     0.825050000000     0          
O        O      0.429600000000     0.429600000000     0.500000000000     0          
O        O      0.500000000000     0.430300000000     0.928550000000     0          
O        O      0.407700000000     0.407700000000     0.903350000000     0          
O        O      0.417000000000     0.417000000000     0.801500000000     0          
O        O      0.413600000000     0.049100000000     0.832300000000     0          
O        O      0.500000000000     0.430000000000     0.750000000000     0          
O        O      0.500000000000     0.057600000000     0.500000000000     0          
O        O      0.823400000000     0.421100000000     0.750000000000     0          
O        O      0.834100000000     0.500000000000     0.809300000000     0          
O        O      0.760300000000     0.436800000000     0.826650000000     0          
O        O      0.853600000000     0.411400000000     0.847100000000     0          
O        O      0.670100000000     0.401300000000     0.841200000000     0          
O        O      0.695800000000     0.434600000000     0.750000000000     0          
O        O      0.685200000000     0.500000000000     0.825050000000     0          
O        O      0.570400000000     0.429600000000     0.500000000000     0          
O        O      0.569700000000     0.500000000000     0.928550000000     0          
O        O      0.592300000000     0.407700000000     0.903350000000     0          
O        O      0.583000000000     0.417000000000     0.801500000000     0          
O        O      0.950900000000     0.413600000000     0.832300000000     0          
O        O      0.570000000000     0.500000000000     0.750000000000     0          
O        O      0.942400000000     0.500000000000     0.500000000000     0          
O        O      0.578900000000     0.176600000000     0.750000000000     0          
O        O      0.500000000000     0.165900000000     0.690700000000     0          
O        O      0.563200000000     0.239700000000     0.673350000000     0          
O        O      0.588600000000     0.146400000000     0.652900000000     0          
O        O      0.598700000000     0.329900000000     0.658800000000     0          
O        O      0.565400000000     0.304200000000     0.750000000000     0          
O        O      0.500000000000     0.314800000000     0.674950000000     0          
O        O      0.500000000000     0.430300000000     0.571450000000     0          
O        O      0.592300000000     0.407700000000     0.596650000000     0          
O        O      0.583000000000     0.417000000000     0.698500000000     0          
O        O      0.586400000000     0.049100000000     0.667700000000     0          
O        O      0.500000000000     0.000000000000     0.582300000000     0          
O        O      0.823400000000     0.578900000000     0.750000000000     0          
O        O      0.834100000000     0.500000000000     0.690700000000     0          
O        O      0.760300000000     0.563200000000     0.673350000000     0          
O        O      0.853600000000     0.588600000000     0.652900000000     0          
O        O      0.670100000000     0.598700000000     0.658800000000     0          
O        O      0.695800000000     0.565400000000     0.750000000000     0          
O        O      0.685200000000     0.500000000000     0.674950000000     0          
O        O      0.569700000000     0.500000000000     0.571450000000     0          
O        O      0.592300000000     0.592300000000     0.596650000000     0          
O        O      0.583000000000     0.583000000000     0.698500000000     0          
O        O      0.950900000000     0.586400000000     0.667700000000     0          
O        O      0.000000000000     0.500000000000     0.582300000000     0          
O        O      0.421100000000     0.823400000000     0.750000000000     0          
O        O      0.500000000000     0.834100000000     0.690700000000     0          
O        O      0.436800000000     0.760300000000     0.673350000000     0          
O        O      0.411400000000     0.853600000000     0.652900000000     0          
O        O      0.401300000000     0.670100000000     0.658800000000     0          
O        O      0.434600000000     0.695800000000     0.750000000000     0          
O        O      0.500000000000     0.685200000000     0.674950000000     0          
O        O      0.500000000000     0.569700000000     0.571450000000     0          
O        O      0.407700000000     0.592300000000     0.596650000000     0          
O        O      0.417000000000     0.583000000000     0.698500000000     0          
O        O      0.413600000000     0.950900000000     0.667700000000     0          
O        O      0.176600000000     0.421100000000     0.750000000000     0          
O        O      0.165900000000     0.500000000000     0.690700000000     0          
O        O      0.239700000000     0.436800000000     0.673350000000     0          
O        O      0.146400000000     0.411400000000     0.652900000000     0          
O        O      0.329900000000     0.401300000000     0.658800000000     0          
O        O      0.304200000000     0.434600000000     0.750000000000     0          
O        O      0.314800000000     0.500000000000     0.674950000000     0          
O        O      0.430300000000     0.500000000000     0.571450000000     0          
O        O      0.407700000000     0.407700000000     0.596650000000     0          
O        O      0.417000000000     0.417000000000     0.698500000000     0          
O        O      0.049100000000     0.413600000000     0.667700000000     0          
O        O      0.436800000000     0.239700000000     0.673350000000     0          
O        O      0.411400000000     0.146400000000     0.652900000000     0          
O        O      0.401300000000     0.329900000000     0.658800000000     0          
O        O      0.413600000000     0.049100000000     0.667700000000     0          
O        O      0.760300000000     0.436800000000     0.673350000000     0          
O        O      0.853600000000     0.411400000000     0.652900000000     0          
O        O      0.670100000000     0.401300000000     0.658800000000     0          
O        O      0.950900000000     0.413600000000     0.667700000000     0          
O        O      0.563200000000     0.760300000000     0.673350000000     0          
O        O      0.588600000000     0.853600000000     0.652900000000     0          
O        O      0.598700000000     0.670100000000     0.658800000000     0          
O        O      0.586400000000     0.950900000000     0.667700000000     0          
O        O      0.239700000000     0.563200000000     0.673350000000     0          
O        O      0.146400000000     0.588600000000     0.652900000000     0          
O        O      0.329900000000     0.598700000000     0.658800000000     0          
O        O      0.049100000000     0.586400000000     0.667700000000     0          
O        O      0.436800000000     0.760300000000     0.826650000000     0          
O        O      0.411400000000     0.853600000000     0.847100000000     0          
O        O      0.401300000000     0.670100000000     0.841200000000     0          
O        O      0.413600000000     0.950900000000     0.832300000000     0          
O        O      0.239700000000     0.436800000000     0.826650000000     0          
O        O      0.146400000000     0.411400000000     0.847100000000     0          
O        O      0.329900000000     0.401300000000     0.841200000000     0          
O        O      0.049100000000     0.413600000000     0.832300000000     0          
O        O      0.563200000000     0.239700000000     0.826650000000     0          
O        O      0.588600000000     0.146400000000     0.847100000000     0          
O        O      0.598700000000     0.329900000000     0.841200000000     0          
O        O      0.586400000000     0.049100000000     0.832300000000     0          
O        O      0.760300000000     0.563200000000     0.826650000000     0          
O        O      0.853600000000     0.588600000000     0.847100000000     0          
O        O      0.670100000000     0.598700000000     0.841200000000     0          
O        O      0.950900000000     0.586400000000     0.832300000000     0          


