data_zeolite

_audit_creation_method RASPA-1.0
_audit_creation_date 2021-1-31
_audit_author_name ''

_cell_length_a    27.004
_cell_length_b    35.604
_cell_length_c    35.884
_cell_angle_alpha 90
_cell_angle_beta  90
_cell_angle_gamma 90
_cell_volume      34500.7

_symmetry_cell_setting          orthorhombic
_symmetry_space_group_name_Hall 'P 1'
_symmetry_space_group_name_H-M  'P 1'
_symmetry_Int_Tables_number     1

_symmetry_equiv_pos_as_xyz 'x,y,z'

loop_
_atom_site_label
_atom_site_type_symbol
_atom_site_fract_x
_atom_site_fract_y
_atom_site_fract_z
_atom_site_charge
O        O      0.000000000000     0.072450000000     0.094850000000     0          
O        O      0.066900000000     0.036900000000     0.134800000000     0          
O        O      0.090600000000     0.098900000000     0.099100000000     0          
O        O      0.073050000000     0.036900000000     0.061650000000     0          
O        O      0.156900000000     0.000000000000     0.054950000000     0          
O        O      0.092300000000     0.000000000000     0.000000000000     0          
O        O      0.000000000000     0.000000000000     0.173450000000     0          
T        Si     0.057600000000     0.061250000000     0.097650000000     0          
T        Si     0.098900000000     0.000000000000     0.044500000000     0          
T        Si     0.056700000000     0.000000000000     0.159500000000     0          
T        Si     0.125000000000     0.125000000000     0.125000000000     0          
O        O      0.000000000000     0.427550000000     0.094850000000     0          
O        O      0.433100000000     0.463100000000     0.134800000000     0          
O        O      0.409400000000     0.401100000000     0.099100000000     0          
O        O      0.426950000000     0.463100000000     0.061650000000     0          
O        O      0.343100000000     0.000000000000     0.054950000000     0          
O        O      0.407700000000     0.000000000000     0.000000000000     0          
T        Si     0.442400000000     0.438750000000     0.097650000000     0          
T        Si     0.401100000000     0.000000000000     0.044500000000     0          
T        Si     0.443300000000     0.000000000000     0.159500000000     0          
T        Si     0.375000000000     0.375000000000     0.125000000000     0          
O        O      0.000000000000     0.427550000000     0.405150000000     0          
O        O      0.066900000000     0.463100000000     0.365200000000     0          
O        O      0.090600000000     0.401100000000     0.400900000000     0          
O        O      0.073050000000     0.463100000000     0.438350000000     0          
O        O      0.156900000000     0.000000000000     0.445050000000     0          
O        O      0.000000000000     0.000000000000     0.326550000000     0          
T        Si     0.057600000000     0.438750000000     0.402350000000     0          
T        Si     0.098900000000     0.000000000000     0.455500000000     0          
T        Si     0.056700000000     0.000000000000     0.340500000000     0          
T        Si     0.125000000000     0.375000000000     0.375000000000     0          
O        O      0.000000000000     0.072450000000     0.405150000000     0          
O        O      0.433100000000     0.036900000000     0.365200000000     0          
O        O      0.409400000000     0.098900000000     0.400900000000     0          
O        O      0.426950000000     0.036900000000     0.438350000000     0          
O        O      0.343100000000     0.000000000000     0.445050000000     0          
T        Si     0.442400000000     0.061250000000     0.402350000000     0          
T        Si     0.401100000000     0.000000000000     0.455500000000     0          
T        Si     0.443300000000     0.000000000000     0.340500000000     0          
T        Si     0.375000000000     0.125000000000     0.375000000000     0          
O        O      0.433100000000     0.463100000000     0.365200000000     0          
O        O      0.409400000000     0.401100000000     0.400900000000     0          
O        O      0.426950000000     0.463100000000     0.438350000000     0          
T        Si     0.442400000000     0.438750000000     0.402350000000     0          
T        Si     0.375000000000     0.375000000000     0.375000000000     0          
O        O      0.066900000000     0.036900000000     0.365200000000     0          
O        O      0.090600000000     0.098900000000     0.400900000000     0          
O        O      0.073050000000     0.036900000000     0.438350000000     0          
T        Si     0.057600000000     0.061250000000     0.402350000000     0          
T        Si     0.125000000000     0.125000000000     0.375000000000     0          
O        O      0.433100000000     0.036900000000     0.134800000000     0          
O        O      0.409400000000     0.098900000000     0.099100000000     0          
O        O      0.426950000000     0.036900000000     0.061650000000     0          
T        Si     0.442400000000     0.061250000000     0.097650000000     0          
T        Si     0.375000000000     0.125000000000     0.125000000000     0          
O        O      0.066900000000     0.463100000000     0.134800000000     0          
O        O      0.090600000000     0.401100000000     0.099100000000     0          
O        O      0.073050000000     0.463100000000     0.061650000000     0          
T        Si     0.057600000000     0.438750000000     0.097650000000     0          
T        Si     0.125000000000     0.375000000000     0.125000000000     0          
O        O      0.000000000000     0.322450000000     0.344850000000     0          
O        O      0.066900000000     0.286900000000     0.384800000000     0          
O        O      0.090600000000     0.348900000000     0.349100000000     0          
O        O      0.073050000000     0.286900000000     0.311650000000     0          
O        O      0.156900000000     0.250000000000     0.304950000000     0          
O        O      0.092300000000     0.250000000000     0.250000000000     0          
O        O      0.000000000000     0.250000000000     0.423450000000     0          
T        Si     0.057600000000     0.311250000000     0.347650000000     0          
T        Si     0.098900000000     0.250000000000     0.294500000000     0          
T        Si     0.056700000000     0.250000000000     0.409500000000     0          
O        O      0.000000000000     0.177550000000     0.344850000000     0          
O        O      0.433100000000     0.213100000000     0.384800000000     0          
O        O      0.409400000000     0.151100000000     0.349100000000     0          
O        O      0.426950000000     0.213100000000     0.311650000000     0          
O        O      0.343100000000     0.250000000000     0.304950000000     0          
O        O      0.407700000000     0.250000000000     0.250000000000     0          
T        Si     0.442400000000     0.188750000000     0.347650000000     0          
T        Si     0.401100000000     0.250000000000     0.294500000000     0          
T        Si     0.443300000000     0.250000000000     0.409500000000     0          
O        O      0.000000000000     0.177550000000     0.155150000000     0          
O        O      0.066900000000     0.213100000000     0.115200000000     0          
O        O      0.090600000000     0.151100000000     0.150900000000     0          
O        O      0.073050000000     0.213100000000     0.188350000000     0          
O        O      0.156900000000     0.250000000000     0.195050000000     0          
O        O      0.000000000000     0.250000000000     0.076550000000     0          
T        Si     0.057600000000     0.188750000000     0.152350000000     0          
T        Si     0.098900000000     0.250000000000     0.205500000000     0          
T        Si     0.056700000000     0.250000000000     0.090500000000     0          
O        O      0.000000000000     0.322450000000     0.155150000000     0          
O        O      0.433100000000     0.286900000000     0.115200000000     0          
O        O      0.409400000000     0.348900000000     0.150900000000     0          
O        O      0.426950000000     0.286900000000     0.188350000000     0          
O        O      0.343100000000     0.250000000000     0.195050000000     0          
T        Si     0.442400000000     0.311250000000     0.152350000000     0          
T        Si     0.401100000000     0.250000000000     0.205500000000     0          
T        Si     0.443300000000     0.250000000000     0.090500000000     0          
O        O      0.433100000000     0.213100000000     0.115200000000     0          
O        O      0.409400000000     0.151100000000     0.150900000000     0          
O        O      0.426950000000     0.213100000000     0.188350000000     0          
T        Si     0.442400000000     0.188750000000     0.152350000000     0          
O        O      0.066900000000     0.286900000000     0.115200000000     0          
O        O      0.090600000000     0.348900000000     0.150900000000     0          
O        O      0.073050000000     0.286900000000     0.188350000000     0          
T        Si     0.057600000000     0.311250000000     0.152350000000     0          
O        O      0.433100000000     0.286900000000     0.384800000000     0          
O        O      0.409400000000     0.348900000000     0.349100000000     0          
O        O      0.426950000000     0.286900000000     0.311650000000     0          
T        Si     0.442400000000     0.311250000000     0.347650000000     0          
O        O      0.066900000000     0.213100000000     0.384800000000     0          
O        O      0.090600000000     0.151100000000     0.349100000000     0          
O        O      0.073050000000     0.213100000000     0.311650000000     0          
T        Si     0.057600000000     0.188750000000     0.347650000000     0          
O        O      0.250000000000     0.072450000000     0.344850000000     0          
O        O      0.316900000000     0.036900000000     0.384800000000     0          
O        O      0.340600000000     0.098900000000     0.349100000000     0          
O        O      0.323050000000     0.036900000000     0.311650000000     0          
O        O      0.406900000000     0.000000000000     0.304950000000     0          
O        O      0.342300000000     0.000000000000     0.250000000000     0          
O        O      0.250000000000     0.000000000000     0.423450000000     0          
T        Si     0.307600000000     0.061250000000     0.347650000000     0          
T        Si     0.348900000000     0.000000000000     0.294500000000     0          
T        Si     0.306700000000     0.000000000000     0.409500000000     0          
O        O      0.250000000000     0.427550000000     0.344850000000     0          
O        O      0.183100000000     0.463100000000     0.384800000000     0          
O        O      0.159400000000     0.401100000000     0.349100000000     0          
O        O      0.176950000000     0.463100000000     0.311650000000     0          
O        O      0.093100000000     0.000000000000     0.304950000000     0          
O        O      0.157700000000     0.000000000000     0.250000000000     0          
T        Si     0.192400000000     0.438750000000     0.347650000000     0          
T        Si     0.151100000000     0.000000000000     0.294500000000     0          
T        Si     0.193300000000     0.000000000000     0.409500000000     0          
O        O      0.250000000000     0.427550000000     0.155150000000     0          
O        O      0.316900000000     0.463100000000     0.115200000000     0          
O        O      0.340600000000     0.401100000000     0.150900000000     0          
O        O      0.323050000000     0.463100000000     0.188350000000     0          
O        O      0.406900000000     0.000000000000     0.195050000000     0          
O        O      0.250000000000     0.000000000000     0.076550000000     0          
T        Si     0.307600000000     0.438750000000     0.152350000000     0          
T        Si     0.348900000000     0.000000000000     0.205500000000     0          
T        Si     0.306700000000     0.000000000000     0.090500000000     0          
O        O      0.250000000000     0.072450000000     0.155150000000     0          
O        O      0.183100000000     0.036900000000     0.115200000000     0          
O        O      0.159400000000     0.098900000000     0.150900000000     0          
O        O      0.176950000000     0.036900000000     0.188350000000     0          
O        O      0.093100000000     0.000000000000     0.195050000000     0          
T        Si     0.192400000000     0.061250000000     0.152350000000     0          
T        Si     0.151100000000     0.000000000000     0.205500000000     0          
T        Si     0.193300000000     0.000000000000     0.090500000000     0          
O        O      0.183100000000     0.463100000000     0.115200000000     0          
O        O      0.159400000000     0.401100000000     0.150900000000     0          
O        O      0.176950000000     0.463100000000     0.188350000000     0          
T        Si     0.192400000000     0.438750000000     0.152350000000     0          
O        O      0.316900000000     0.036900000000     0.115200000000     0          
O        O      0.340600000000     0.098900000000     0.150900000000     0          
O        O      0.323050000000     0.036900000000     0.188350000000     0          
T        Si     0.307600000000     0.061250000000     0.152350000000     0          
O        O      0.183100000000     0.036900000000     0.384800000000     0          
O        O      0.159400000000     0.098900000000     0.349100000000     0          
O        O      0.176950000000     0.036900000000     0.311650000000     0          
T        Si     0.192400000000     0.061250000000     0.347650000000     0          
O        O      0.316900000000     0.463100000000     0.384800000000     0          
O        O      0.340600000000     0.401100000000     0.349100000000     0          
O        O      0.323050000000     0.463100000000     0.311650000000     0          
T        Si     0.307600000000     0.438750000000     0.347650000000     0          
O        O      0.250000000000     0.322450000000     0.094850000000     0          
O        O      0.316900000000     0.286900000000     0.134800000000     0          
O        O      0.340600000000     0.348900000000     0.099100000000     0          
O        O      0.323050000000     0.286900000000     0.061650000000     0          
O        O      0.406900000000     0.250000000000     0.054950000000     0          
O        O      0.342300000000     0.250000000000     0.000000000000     0          
O        O      0.250000000000     0.250000000000     0.173450000000     0          
T        Si     0.307600000000     0.311250000000     0.097650000000     0          
T        Si     0.348900000000     0.250000000000     0.044500000000     0          
T        Si     0.306700000000     0.250000000000     0.159500000000     0          
O        O      0.250000000000     0.177550000000     0.094850000000     0          
O        O      0.183100000000     0.213100000000     0.134800000000     0          
O        O      0.159400000000     0.151100000000     0.099100000000     0          
O        O      0.176950000000     0.213100000000     0.061650000000     0          
O        O      0.093100000000     0.250000000000     0.054950000000     0          
O        O      0.157700000000     0.250000000000     0.000000000000     0          
T        Si     0.192400000000     0.188750000000     0.097650000000     0          
T        Si     0.151100000000     0.250000000000     0.044500000000     0          
T        Si     0.193300000000     0.250000000000     0.159500000000     0          
O        O      0.250000000000     0.177550000000     0.405150000000     0          
O        O      0.316900000000     0.213100000000     0.365200000000     0          
O        O      0.340600000000     0.151100000000     0.400900000000     0          
O        O      0.323050000000     0.213100000000     0.438350000000     0          
O        O      0.406900000000     0.250000000000     0.445050000000     0          
O        O      0.250000000000     0.250000000000     0.326550000000     0          
T        Si     0.307600000000     0.188750000000     0.402350000000     0          
T        Si     0.348900000000     0.250000000000     0.455500000000     0          
T        Si     0.306700000000     0.250000000000     0.340500000000     0          
O        O      0.250000000000     0.322450000000     0.405150000000     0          
O        O      0.183100000000     0.286900000000     0.365200000000     0          
O        O      0.159400000000     0.348900000000     0.400900000000     0          
O        O      0.176950000000     0.286900000000     0.438350000000     0          
O        O      0.093100000000     0.250000000000     0.445050000000     0          
T        Si     0.192400000000     0.311250000000     0.402350000000     0          
T        Si     0.151100000000     0.250000000000     0.455500000000     0          
T        Si     0.193300000000     0.250000000000     0.340500000000     0          
O        O      0.183100000000     0.213100000000     0.365200000000     0          
O        O      0.159400000000     0.151100000000     0.400900000000     0          
O        O      0.176950000000     0.213100000000     0.438350000000     0          
T        Si     0.192400000000     0.188750000000     0.402350000000     0          
O        O      0.316900000000     0.286900000000     0.365200000000     0          
O        O      0.340600000000     0.348900000000     0.400900000000     0          
O        O      0.323050000000     0.286900000000     0.438350000000     0          
T        Si     0.307600000000     0.311250000000     0.402350000000     0          
O        O      0.183100000000     0.286900000000     0.134800000000     0          
O        O      0.159400000000     0.348900000000     0.099100000000     0          
O        O      0.176950000000     0.286900000000     0.061650000000     0          
T        Si     0.192400000000     0.311250000000     0.097650000000     0          
O        O      0.316900000000     0.213100000000     0.134800000000     0          
O        O      0.340600000000     0.151100000000     0.099100000000     0          
O        O      0.323050000000     0.213100000000     0.061650000000     0          
T        Si     0.307600000000     0.188750000000     0.097650000000     0          
O        O      0.000000000000     0.072450000000     0.594850000000     0          
O        O      0.066900000000     0.036900000000     0.634800000000     0          
O        O      0.090600000000     0.098900000000     0.599100000000     0          
O        O      0.073050000000     0.036900000000     0.561650000000     0          
O        O      0.156900000000     0.000000000000     0.554950000000     0          
O        O      0.092300000000     0.000000000000     0.500000000000     0          
O        O      0.000000000000     0.000000000000     0.673450000000     0          
T        Si     0.057600000000     0.061250000000     0.597650000000     0          
T        Si     0.098900000000     0.000000000000     0.544500000000     0          
T        Si     0.056700000000     0.000000000000     0.659500000000     0          
T        Si     0.125000000000     0.125000000000     0.625000000000     0          
O        O      0.000000000000     0.427550000000     0.594850000000     0          
O        O      0.433100000000     0.463100000000     0.634800000000     0          
O        O      0.409400000000     0.401100000000     0.599100000000     0          
O        O      0.426950000000     0.463100000000     0.561650000000     0          
O        O      0.343100000000     0.000000000000     0.554950000000     0          
O        O      0.407700000000     0.000000000000     0.500000000000     0          
T        Si     0.442400000000     0.438750000000     0.597650000000     0          
T        Si     0.401100000000     0.000000000000     0.544500000000     0          
T        Si     0.443300000000     0.000000000000     0.659500000000     0          
T        Si     0.375000000000     0.375000000000     0.625000000000     0          
O        O      0.000000000000     0.427550000000     0.905150000000     0          
O        O      0.066900000000     0.463100000000     0.865200000000     0          
O        O      0.090600000000     0.401100000000     0.900900000000     0          
O        O      0.073050000000     0.463100000000     0.938350000000     0          
O        O      0.156900000000     0.000000000000     0.945050000000     0          
O        O      0.000000000000     0.000000000000     0.826550000000     0          
T        Si     0.057600000000     0.438750000000     0.902350000000     0          
T        Si     0.098900000000     0.000000000000     0.955500000000     0          
T        Si     0.056700000000     0.000000000000     0.840500000000     0          
T        Si     0.125000000000     0.375000000000     0.875000000000     0          
O        O      0.000000000000     0.072450000000     0.905150000000     0          
O        O      0.433100000000     0.036900000000     0.865200000000     0          
O        O      0.409400000000     0.098900000000     0.900900000000     0          
O        O      0.426950000000     0.036900000000     0.938350000000     0          
O        O      0.343100000000     0.000000000000     0.945050000000     0          
T        Si     0.442400000000     0.061250000000     0.902350000000     0          
T        Si     0.401100000000     0.000000000000     0.955500000000     0          
T        Si     0.443300000000     0.000000000000     0.840500000000     0          
T        Si     0.375000000000     0.125000000000     0.875000000000     0          
O        O      0.433100000000     0.463100000000     0.865200000000     0          
O        O      0.409400000000     0.401100000000     0.900900000000     0          
O        O      0.426950000000     0.463100000000     0.938350000000     0          
T        Si     0.442400000000     0.438750000000     0.902350000000     0          
T        Si     0.375000000000     0.375000000000     0.875000000000     0          
O        O      0.066900000000     0.036900000000     0.865200000000     0          
O        O      0.090600000000     0.098900000000     0.900900000000     0          
O        O      0.073050000000     0.036900000000     0.938350000000     0          
T        Si     0.057600000000     0.061250000000     0.902350000000     0          
T        Si     0.125000000000     0.125000000000     0.875000000000     0          
O        O      0.433100000000     0.036900000000     0.634800000000     0          
O        O      0.409400000000     0.098900000000     0.599100000000     0          
O        O      0.426950000000     0.036900000000     0.561650000000     0          
T        Si     0.442400000000     0.061250000000     0.597650000000     0          
T        Si     0.375000000000     0.125000000000     0.625000000000     0          
O        O      0.066900000000     0.463100000000     0.634800000000     0          
O        O      0.090600000000     0.401100000000     0.599100000000     0          
O        O      0.073050000000     0.463100000000     0.561650000000     0          
T        Si     0.057600000000     0.438750000000     0.597650000000     0          
T        Si     0.125000000000     0.375000000000     0.625000000000     0          
O        O      0.000000000000     0.322450000000     0.844850000000     0          
O        O      0.066900000000     0.286900000000     0.884800000000     0          
O        O      0.090600000000     0.348900000000     0.849100000000     0          
O        O      0.073050000000     0.286900000000     0.811650000000     0          
O        O      0.156900000000     0.250000000000     0.804950000000     0          
O        O      0.092300000000     0.250000000000     0.750000000000     0          
O        O      0.000000000000     0.250000000000     0.923450000000     0          
T        Si     0.057600000000     0.311250000000     0.847650000000     0          
T        Si     0.098900000000     0.250000000000     0.794500000000     0          
T        Si     0.056700000000     0.250000000000     0.909500000000     0          
O        O      0.000000000000     0.177550000000     0.844850000000     0          
O        O      0.433100000000     0.213100000000     0.884800000000     0          
O        O      0.409400000000     0.151100000000     0.849100000000     0          
O        O      0.426950000000     0.213100000000     0.811650000000     0          
O        O      0.343100000000     0.250000000000     0.804950000000     0          
O        O      0.407700000000     0.250000000000     0.750000000000     0          
T        Si     0.442400000000     0.188750000000     0.847650000000     0          
T        Si     0.401100000000     0.250000000000     0.794500000000     0          
T        Si     0.443300000000     0.250000000000     0.909500000000     0          
O        O      0.000000000000     0.177550000000     0.655150000000     0          
O        O      0.066900000000     0.213100000000     0.615200000000     0          
O        O      0.090600000000     0.151100000000     0.650900000000     0          
O        O      0.073050000000     0.213100000000     0.688350000000     0          
O        O      0.156900000000     0.250000000000     0.695050000000     0          
O        O      0.000000000000     0.250000000000     0.576550000000     0          
T        Si     0.057600000000     0.188750000000     0.652350000000     0          
T        Si     0.098900000000     0.250000000000     0.705500000000     0          
T        Si     0.056700000000     0.250000000000     0.590500000000     0          
O        O      0.000000000000     0.322450000000     0.655150000000     0          
O        O      0.433100000000     0.286900000000     0.615200000000     0          
O        O      0.409400000000     0.348900000000     0.650900000000     0          
O        O      0.426950000000     0.286900000000     0.688350000000     0          
O        O      0.343100000000     0.250000000000     0.695050000000     0          
T        Si     0.442400000000     0.311250000000     0.652350000000     0          
T        Si     0.401100000000     0.250000000000     0.705500000000     0          
T        Si     0.443300000000     0.250000000000     0.590500000000     0          
O        O      0.433100000000     0.213100000000     0.615200000000     0          
O        O      0.409400000000     0.151100000000     0.650900000000     0          
O        O      0.426950000000     0.213100000000     0.688350000000     0          
T        Si     0.442400000000     0.188750000000     0.652350000000     0          
O        O      0.066900000000     0.286900000000     0.615200000000     0          
O        O      0.090600000000     0.348900000000     0.650900000000     0          
O        O      0.073050000000     0.286900000000     0.688350000000     0          
T        Si     0.057600000000     0.311250000000     0.652350000000     0          
O        O      0.433100000000     0.286900000000     0.884800000000     0          
O        O      0.409400000000     0.348900000000     0.849100000000     0          
O        O      0.426950000000     0.286900000000     0.811650000000     0          
T        Si     0.442400000000     0.311250000000     0.847650000000     0          
O        O      0.066900000000     0.213100000000     0.884800000000     0          
O        O      0.090600000000     0.151100000000     0.849100000000     0          
O        O      0.073050000000     0.213100000000     0.811650000000     0          
T        Si     0.057600000000     0.188750000000     0.847650000000     0          
O        O      0.250000000000     0.072450000000     0.844850000000     0          
O        O      0.316900000000     0.036900000000     0.884800000000     0          
O        O      0.340600000000     0.098900000000     0.849100000000     0          
O        O      0.323050000000     0.036900000000     0.811650000000     0          
O        O      0.406900000000     0.000000000000     0.804950000000     0          
O        O      0.342300000000     0.000000000000     0.750000000000     0          
O        O      0.250000000000     0.000000000000     0.923450000000     0          
T        Si     0.307600000000     0.061250000000     0.847650000000     0          
T        Si     0.348900000000     0.000000000000     0.794500000000     0          
T        Si     0.306700000000     0.000000000000     0.909500000000     0          
O        O      0.250000000000     0.427550000000     0.844850000000     0          
O        O      0.183100000000     0.463100000000     0.884800000000     0          
O        O      0.159400000000     0.401100000000     0.849100000000     0          
O        O      0.176950000000     0.463100000000     0.811650000000     0          
O        O      0.093100000000     0.000000000000     0.804950000000     0          
O        O      0.157700000000     0.000000000000     0.750000000000     0          
T        Si     0.192400000000     0.438750000000     0.847650000000     0          
T        Si     0.151100000000     0.000000000000     0.794500000000     0          
T        Si     0.193300000000     0.000000000000     0.909500000000     0          
O        O      0.250000000000     0.427550000000     0.655150000000     0          
O        O      0.316900000000     0.463100000000     0.615200000000     0          
O        O      0.340600000000     0.401100000000     0.650900000000     0          
O        O      0.323050000000     0.463100000000     0.688350000000     0          
O        O      0.406900000000     0.000000000000     0.695050000000     0          
O        O      0.250000000000     0.000000000000     0.576550000000     0          
T        Si     0.307600000000     0.438750000000     0.652350000000     0          
T        Si     0.348900000000     0.000000000000     0.705500000000     0          
T        Si     0.306700000000     0.000000000000     0.590500000000     0          
O        O      0.250000000000     0.072450000000     0.655150000000     0          
O        O      0.183100000000     0.036900000000     0.615200000000     0          
O        O      0.159400000000     0.098900000000     0.650900000000     0          
O        O      0.176950000000     0.036900000000     0.688350000000     0          
O        O      0.093100000000     0.000000000000     0.695050000000     0          
T        Si     0.192400000000     0.061250000000     0.652350000000     0          
T        Si     0.151100000000     0.000000000000     0.705500000000     0          
T        Si     0.193300000000     0.000000000000     0.590500000000     0          
O        O      0.183100000000     0.463100000000     0.615200000000     0          
O        O      0.159400000000     0.401100000000     0.650900000000     0          
O        O      0.176950000000     0.463100000000     0.688350000000     0          
T        Si     0.192400000000     0.438750000000     0.652350000000     0          
O        O      0.316900000000     0.036900000000     0.615200000000     0          
O        O      0.340600000000     0.098900000000     0.650900000000     0          
O        O      0.323050000000     0.036900000000     0.688350000000     0          
T        Si     0.307600000000     0.061250000000     0.652350000000     0          
O        O      0.183100000000     0.036900000000     0.884800000000     0          
O        O      0.159400000000     0.098900000000     0.849100000000     0          
O        O      0.176950000000     0.036900000000     0.811650000000     0          
T        Si     0.192400000000     0.061250000000     0.847650000000     0          
O        O      0.316900000000     0.463100000000     0.884800000000     0          
O        O      0.340600000000     0.401100000000     0.849100000000     0          
O        O      0.323050000000     0.463100000000     0.811650000000     0          
T        Si     0.307600000000     0.438750000000     0.847650000000     0          
O        O      0.250000000000     0.322450000000     0.594850000000     0          
O        O      0.316900000000     0.286900000000     0.634800000000     0          
O        O      0.340600000000     0.348900000000     0.599100000000     0          
O        O      0.323050000000     0.286900000000     0.561650000000     0          
O        O      0.406900000000     0.250000000000     0.554950000000     0          
O        O      0.342300000000     0.250000000000     0.500000000000     0          
O        O      0.250000000000     0.250000000000     0.673450000000     0          
T        Si     0.307600000000     0.311250000000     0.597650000000     0          
T        Si     0.348900000000     0.250000000000     0.544500000000     0          
T        Si     0.306700000000     0.250000000000     0.659500000000     0          
O        O      0.250000000000     0.177550000000     0.594850000000     0          
O        O      0.183100000000     0.213100000000     0.634800000000     0          
O        O      0.159400000000     0.151100000000     0.599100000000     0          
O        O      0.176950000000     0.213100000000     0.561650000000     0          
O        O      0.093100000000     0.250000000000     0.554950000000     0          
O        O      0.157700000000     0.250000000000     0.500000000000     0          
T        Si     0.192400000000     0.188750000000     0.597650000000     0          
T        Si     0.151100000000     0.250000000000     0.544500000000     0          
T        Si     0.193300000000     0.250000000000     0.659500000000     0          
O        O      0.250000000000     0.177550000000     0.905150000000     0          
O        O      0.316900000000     0.213100000000     0.865200000000     0          
O        O      0.340600000000     0.151100000000     0.900900000000     0          
O        O      0.323050000000     0.213100000000     0.938350000000     0          
O        O      0.406900000000     0.250000000000     0.945050000000     0          
O        O      0.250000000000     0.250000000000     0.826550000000     0          
T        Si     0.307600000000     0.188750000000     0.902350000000     0          
T        Si     0.348900000000     0.250000000000     0.955500000000     0          
T        Si     0.306700000000     0.250000000000     0.840500000000     0          
O        O      0.250000000000     0.322450000000     0.905150000000     0          
O        O      0.183100000000     0.286900000000     0.865200000000     0          
O        O      0.159400000000     0.348900000000     0.900900000000     0          
O        O      0.176950000000     0.286900000000     0.938350000000     0          
O        O      0.093100000000     0.250000000000     0.945050000000     0          
T        Si     0.192400000000     0.311250000000     0.902350000000     0          
T        Si     0.151100000000     0.250000000000     0.955500000000     0          
T        Si     0.193300000000     0.250000000000     0.840500000000     0          
O        O      0.183100000000     0.213100000000     0.865200000000     0          
O        O      0.159400000000     0.151100000000     0.900900000000     0          
O        O      0.176950000000     0.213100000000     0.938350000000     0          
T        Si     0.192400000000     0.188750000000     0.902350000000     0          
O        O      0.316900000000     0.286900000000     0.865200000000     0          
O        O      0.340600000000     0.348900000000     0.900900000000     0          
O        O      0.323050000000     0.286900000000     0.938350000000     0          
T        Si     0.307600000000     0.311250000000     0.902350000000     0          
O        O      0.183100000000     0.286900000000     0.634800000000     0          
O        O      0.159400000000     0.348900000000     0.599100000000     0          
O        O      0.176950000000     0.286900000000     0.561650000000     0          
T        Si     0.192400000000     0.311250000000     0.597650000000     0          
O        O      0.316900000000     0.213100000000     0.634800000000     0          
O        O      0.340600000000     0.151100000000     0.599100000000     0          
O        O      0.323050000000     0.213100000000     0.561650000000     0          
T        Si     0.307600000000     0.188750000000     0.597650000000     0          
O        O      0.000000000000     0.572450000000     0.094850000000     0          
O        O      0.066900000000     0.536900000000     0.134800000000     0          
O        O      0.090600000000     0.598900000000     0.099100000000     0          
O        O      0.073050000000     0.536900000000     0.061650000000     0          
O        O      0.156900000000     0.500000000000     0.054950000000     0          
O        O      0.092300000000     0.500000000000     0.000000000000     0          
O        O      0.000000000000     0.500000000000     0.173450000000     0          
T        Si     0.057600000000     0.561250000000     0.097650000000     0          
T        Si     0.098900000000     0.500000000000     0.044500000000     0          
T        Si     0.056700000000     0.500000000000     0.159500000000     0          
T        Si     0.125000000000     0.625000000000     0.125000000000     0          
O        O      0.000000000000     0.927550000000     0.094850000000     0          
O        O      0.433100000000     0.963100000000     0.134800000000     0          
O        O      0.409400000000     0.901100000000     0.099100000000     0          
O        O      0.426950000000     0.963100000000     0.061650000000     0          
O        O      0.343100000000     0.500000000000     0.054950000000     0          
O        O      0.407700000000     0.500000000000     0.000000000000     0          
T        Si     0.442400000000     0.938750000000     0.097650000000     0          
T        Si     0.401100000000     0.500000000000     0.044500000000     0          
T        Si     0.443300000000     0.500000000000     0.159500000000     0          
T        Si     0.375000000000     0.875000000000     0.125000000000     0          
O        O      0.000000000000     0.927550000000     0.405150000000     0          
O        O      0.066900000000     0.963100000000     0.365200000000     0          
O        O      0.090600000000     0.901100000000     0.400900000000     0          
O        O      0.073050000000     0.963100000000     0.438350000000     0          
O        O      0.156900000000     0.500000000000     0.445050000000     0          
O        O      0.000000000000     0.500000000000     0.326550000000     0          
T        Si     0.057600000000     0.938750000000     0.402350000000     0          
T        Si     0.098900000000     0.500000000000     0.455500000000     0          
T        Si     0.056700000000     0.500000000000     0.340500000000     0          
T        Si     0.125000000000     0.875000000000     0.375000000000     0          
O        O      0.000000000000     0.572450000000     0.405150000000     0          
O        O      0.433100000000     0.536900000000     0.365200000000     0          
O        O      0.409400000000     0.598900000000     0.400900000000     0          
O        O      0.426950000000     0.536900000000     0.438350000000     0          
O        O      0.343100000000     0.500000000000     0.445050000000     0          
T        Si     0.442400000000     0.561250000000     0.402350000000     0          
T        Si     0.401100000000     0.500000000000     0.455500000000     0          
T        Si     0.443300000000     0.500000000000     0.340500000000     0          
T        Si     0.375000000000     0.625000000000     0.375000000000     0          
O        O      0.433100000000     0.963100000000     0.365200000000     0          
O        O      0.409400000000     0.901100000000     0.400900000000     0          
O        O      0.426950000000     0.963100000000     0.438350000000     0          
T        Si     0.442400000000     0.938750000000     0.402350000000     0          
T        Si     0.375000000000     0.875000000000     0.375000000000     0          
O        O      0.066900000000     0.536900000000     0.365200000000     0          
O        O      0.090600000000     0.598900000000     0.400900000000     0          
O        O      0.073050000000     0.536900000000     0.438350000000     0          
T        Si     0.057600000000     0.561250000000     0.402350000000     0          
T        Si     0.125000000000     0.625000000000     0.375000000000     0          
O        O      0.433100000000     0.536900000000     0.134800000000     0          
O        O      0.409400000000     0.598900000000     0.099100000000     0          
O        O      0.426950000000     0.536900000000     0.061650000000     0          
T        Si     0.442400000000     0.561250000000     0.097650000000     0          
T        Si     0.375000000000     0.625000000000     0.125000000000     0          
O        O      0.066900000000     0.963100000000     0.134800000000     0          
O        O      0.090600000000     0.901100000000     0.099100000000     0          
O        O      0.073050000000     0.963100000000     0.061650000000     0          
T        Si     0.057600000000     0.938750000000     0.097650000000     0          
T        Si     0.125000000000     0.875000000000     0.125000000000     0          
O        O      0.000000000000     0.822450000000     0.344850000000     0          
O        O      0.066900000000     0.786900000000     0.384800000000     0          
O        O      0.090600000000     0.848900000000     0.349100000000     0          
O        O      0.073050000000     0.786900000000     0.311650000000     0          
O        O      0.156900000000     0.750000000000     0.304950000000     0          
O        O      0.092300000000     0.750000000000     0.250000000000     0          
O        O      0.000000000000     0.750000000000     0.423450000000     0          
T        Si     0.057600000000     0.811250000000     0.347650000000     0          
T        Si     0.098900000000     0.750000000000     0.294500000000     0          
T        Si     0.056700000000     0.750000000000     0.409500000000     0          
O        O      0.000000000000     0.677550000000     0.344850000000     0          
O        O      0.433100000000     0.713100000000     0.384800000000     0          
O        O      0.409400000000     0.651100000000     0.349100000000     0          
O        O      0.426950000000     0.713100000000     0.311650000000     0          
O        O      0.343100000000     0.750000000000     0.304950000000     0          
O        O      0.407700000000     0.750000000000     0.250000000000     0          
T        Si     0.442400000000     0.688750000000     0.347650000000     0          
T        Si     0.401100000000     0.750000000000     0.294500000000     0          
T        Si     0.443300000000     0.750000000000     0.409500000000     0          
O        O      0.000000000000     0.677550000000     0.155150000000     0          
O        O      0.066900000000     0.713100000000     0.115200000000     0          
O        O      0.090600000000     0.651100000000     0.150900000000     0          
O        O      0.073050000000     0.713100000000     0.188350000000     0          
O        O      0.156900000000     0.750000000000     0.195050000000     0          
O        O      0.000000000000     0.750000000000     0.076550000000     0          
T        Si     0.057600000000     0.688750000000     0.152350000000     0          
T        Si     0.098900000000     0.750000000000     0.205500000000     0          
T        Si     0.056700000000     0.750000000000     0.090500000000     0          
O        O      0.000000000000     0.822450000000     0.155150000000     0          
O        O      0.433100000000     0.786900000000     0.115200000000     0          
O        O      0.409400000000     0.848900000000     0.150900000000     0          
O        O      0.426950000000     0.786900000000     0.188350000000     0          
O        O      0.343100000000     0.750000000000     0.195050000000     0          
T        Si     0.442400000000     0.811250000000     0.152350000000     0          
T        Si     0.401100000000     0.750000000000     0.205500000000     0          
T        Si     0.443300000000     0.750000000000     0.090500000000     0          
O        O      0.433100000000     0.713100000000     0.115200000000     0          
O        O      0.409400000000     0.651100000000     0.150900000000     0          
O        O      0.426950000000     0.713100000000     0.188350000000     0          
T        Si     0.442400000000     0.688750000000     0.152350000000     0          
O        O      0.066900000000     0.786900000000     0.115200000000     0          
O        O      0.090600000000     0.848900000000     0.150900000000     0          
O        O      0.073050000000     0.786900000000     0.188350000000     0          
T        Si     0.057600000000     0.811250000000     0.152350000000     0          
O        O      0.433100000000     0.786900000000     0.384800000000     0          
O        O      0.409400000000     0.848900000000     0.349100000000     0          
O        O      0.426950000000     0.786900000000     0.311650000000     0          
T        Si     0.442400000000     0.811250000000     0.347650000000     0          
O        O      0.066900000000     0.713100000000     0.384800000000     0          
O        O      0.090600000000     0.651100000000     0.349100000000     0          
O        O      0.073050000000     0.713100000000     0.311650000000     0          
T        Si     0.057600000000     0.688750000000     0.347650000000     0          
O        O      0.250000000000     0.572450000000     0.344850000000     0          
O        O      0.316900000000     0.536900000000     0.384800000000     0          
O        O      0.340600000000     0.598900000000     0.349100000000     0          
O        O      0.323050000000     0.536900000000     0.311650000000     0          
O        O      0.406900000000     0.500000000000     0.304950000000     0          
O        O      0.342300000000     0.500000000000     0.250000000000     0          
O        O      0.250000000000     0.500000000000     0.423450000000     0          
T        Si     0.307600000000     0.561250000000     0.347650000000     0          
T        Si     0.348900000000     0.500000000000     0.294500000000     0          
T        Si     0.306700000000     0.500000000000     0.409500000000     0          
O        O      0.250000000000     0.927550000000     0.344850000000     0          
O        O      0.183100000000     0.963100000000     0.384800000000     0          
O        O      0.159400000000     0.901100000000     0.349100000000     0          
O        O      0.176950000000     0.963100000000     0.311650000000     0          
O        O      0.093100000000     0.500000000000     0.304950000000     0          
O        O      0.157700000000     0.500000000000     0.250000000000     0          
T        Si     0.192400000000     0.938750000000     0.347650000000     0          
T        Si     0.151100000000     0.500000000000     0.294500000000     0          
T        Si     0.193300000000     0.500000000000     0.409500000000     0          
O        O      0.250000000000     0.927550000000     0.155150000000     0          
O        O      0.316900000000     0.963100000000     0.115200000000     0          
O        O      0.340600000000     0.901100000000     0.150900000000     0          
O        O      0.323050000000     0.963100000000     0.188350000000     0          
O        O      0.406900000000     0.500000000000     0.195050000000     0          
O        O      0.250000000000     0.500000000000     0.076550000000     0          
T        Si     0.307600000000     0.938750000000     0.152350000000     0          
T        Si     0.348900000000     0.500000000000     0.205500000000     0          
T        Si     0.306700000000     0.500000000000     0.090500000000     0          
O        O      0.250000000000     0.572450000000     0.155150000000     0          
O        O      0.183100000000     0.536900000000     0.115200000000     0          
O        O      0.159400000000     0.598900000000     0.150900000000     0          
O        O      0.176950000000     0.536900000000     0.188350000000     0          
O        O      0.093100000000     0.500000000000     0.195050000000     0          
T        Si     0.192400000000     0.561250000000     0.152350000000     0          
T        Si     0.151100000000     0.500000000000     0.205500000000     0          
T        Si     0.193300000000     0.500000000000     0.090500000000     0          
O        O      0.183100000000     0.963100000000     0.115200000000     0          
O        O      0.159400000000     0.901100000000     0.150900000000     0          
O        O      0.176950000000     0.963100000000     0.188350000000     0          
T        Si     0.192400000000     0.938750000000     0.152350000000     0          
O        O      0.316900000000     0.536900000000     0.115200000000     0          
O        O      0.340600000000     0.598900000000     0.150900000000     0          
O        O      0.323050000000     0.536900000000     0.188350000000     0          
T        Si     0.307600000000     0.561250000000     0.152350000000     0          
O        O      0.183100000000     0.536900000000     0.384800000000     0          
O        O      0.159400000000     0.598900000000     0.349100000000     0          
O        O      0.176950000000     0.536900000000     0.311650000000     0          
T        Si     0.192400000000     0.561250000000     0.347650000000     0          
O        O      0.316900000000     0.963100000000     0.384800000000     0          
O        O      0.340600000000     0.901100000000     0.349100000000     0          
O        O      0.323050000000     0.963100000000     0.311650000000     0          
T        Si     0.307600000000     0.938750000000     0.347650000000     0          
O        O      0.250000000000     0.822450000000     0.094850000000     0          
O        O      0.316900000000     0.786900000000     0.134800000000     0          
O        O      0.340600000000     0.848900000000     0.099100000000     0          
O        O      0.323050000000     0.786900000000     0.061650000000     0          
O        O      0.406900000000     0.750000000000     0.054950000000     0          
O        O      0.342300000000     0.750000000000     0.000000000000     0          
O        O      0.250000000000     0.750000000000     0.173450000000     0          
T        Si     0.307600000000     0.811250000000     0.097650000000     0          
T        Si     0.348900000000     0.750000000000     0.044500000000     0          
T        Si     0.306700000000     0.750000000000     0.159500000000     0          
O        O      0.250000000000     0.677550000000     0.094850000000     0          
O        O      0.183100000000     0.713100000000     0.134800000000     0          
O        O      0.159400000000     0.651100000000     0.099100000000     0          
O        O      0.176950000000     0.713100000000     0.061650000000     0          
O        O      0.093100000000     0.750000000000     0.054950000000     0          
O        O      0.157700000000     0.750000000000     0.000000000000     0          
T        Si     0.192400000000     0.688750000000     0.097650000000     0          
T        Si     0.151100000000     0.750000000000     0.044500000000     0          
T        Si     0.193300000000     0.750000000000     0.159500000000     0          
O        O      0.250000000000     0.677550000000     0.405150000000     0          
O        O      0.316900000000     0.713100000000     0.365200000000     0          
O        O      0.340600000000     0.651100000000     0.400900000000     0          
O        O      0.323050000000     0.713100000000     0.438350000000     0          
O        O      0.406900000000     0.750000000000     0.445050000000     0          
O        O      0.250000000000     0.750000000000     0.326550000000     0          
T        Si     0.307600000000     0.688750000000     0.402350000000     0          
T        Si     0.348900000000     0.750000000000     0.455500000000     0          
T        Si     0.306700000000     0.750000000000     0.340500000000     0          
O        O      0.250000000000     0.822450000000     0.405150000000     0          
O        O      0.183100000000     0.786900000000     0.365200000000     0          
O        O      0.159400000000     0.848900000000     0.400900000000     0          
O        O      0.176950000000     0.786900000000     0.438350000000     0          
O        O      0.093100000000     0.750000000000     0.445050000000     0          
T        Si     0.192400000000     0.811250000000     0.402350000000     0          
T        Si     0.151100000000     0.750000000000     0.455500000000     0          
T        Si     0.193300000000     0.750000000000     0.340500000000     0          
O        O      0.183100000000     0.713100000000     0.365200000000     0          
O        O      0.159400000000     0.651100000000     0.400900000000     0          
O        O      0.176950000000     0.713100000000     0.438350000000     0          
T        Si     0.192400000000     0.688750000000     0.402350000000     0          
O        O      0.316900000000     0.786900000000     0.365200000000     0          
O        O      0.340600000000     0.848900000000     0.400900000000     0          
O        O      0.323050000000     0.786900000000     0.438350000000     0          
T        Si     0.307600000000     0.811250000000     0.402350000000     0          
O        O      0.183100000000     0.786900000000     0.134800000000     0          
O        O      0.159400000000     0.848900000000     0.099100000000     0          
O        O      0.176950000000     0.786900000000     0.061650000000     0          
T        Si     0.192400000000     0.811250000000     0.097650000000     0          
O        O      0.316900000000     0.713100000000     0.134800000000     0          
O        O      0.340600000000     0.651100000000     0.099100000000     0          
O        O      0.323050000000     0.713100000000     0.061650000000     0          
T        Si     0.307600000000     0.688750000000     0.097650000000     0          
O        O      0.000000000000     0.572450000000     0.594850000000     0          
O        O      0.066900000000     0.536900000000     0.634800000000     0          
O        O      0.090600000000     0.598900000000     0.599100000000     0          
O        O      0.073050000000     0.536900000000     0.561650000000     0          
O        O      0.156900000000     0.500000000000     0.554950000000     0          
O        O      0.092300000000     0.500000000000     0.500000000000     0          
O        O      0.000000000000     0.500000000000     0.673450000000     0          
T        Si     0.057600000000     0.561250000000     0.597650000000     0          
T        Si     0.098900000000     0.500000000000     0.544500000000     0          
T        Si     0.056700000000     0.500000000000     0.659500000000     0          
T        Si     0.125000000000     0.625000000000     0.625000000000     0          
O        O      0.000000000000     0.927550000000     0.594850000000     0          
O        O      0.433100000000     0.963100000000     0.634800000000     0          
O        O      0.409400000000     0.901100000000     0.599100000000     0          
O        O      0.426950000000     0.963100000000     0.561650000000     0          
O        O      0.343100000000     0.500000000000     0.554950000000     0          
O        O      0.407700000000     0.500000000000     0.500000000000     0          
T        Si     0.442400000000     0.938750000000     0.597650000000     0          
T        Si     0.401100000000     0.500000000000     0.544500000000     0          
T        Si     0.443300000000     0.500000000000     0.659500000000     0          
T        Si     0.375000000000     0.875000000000     0.625000000000     0          
O        O      0.000000000000     0.927550000000     0.905150000000     0          
O        O      0.066900000000     0.963100000000     0.865200000000     0          
O        O      0.090600000000     0.901100000000     0.900900000000     0          
O        O      0.073050000000     0.963100000000     0.938350000000     0          
O        O      0.156900000000     0.500000000000     0.945050000000     0          
O        O      0.000000000000     0.500000000000     0.826550000000     0          
T        Si     0.057600000000     0.938750000000     0.902350000000     0          
T        Si     0.098900000000     0.500000000000     0.955500000000     0          
T        Si     0.056700000000     0.500000000000     0.840500000000     0          
T        Si     0.125000000000     0.875000000000     0.875000000000     0          
O        O      0.000000000000     0.572450000000     0.905150000000     0          
O        O      0.433100000000     0.536900000000     0.865200000000     0          
O        O      0.409400000000     0.598900000000     0.900900000000     0          
O        O      0.426950000000     0.536900000000     0.938350000000     0          
O        O      0.343100000000     0.500000000000     0.945050000000     0          
T        Si     0.442400000000     0.561250000000     0.902350000000     0          
T        Si     0.401100000000     0.500000000000     0.955500000000     0          
T        Si     0.443300000000     0.500000000000     0.840500000000     0          
T        Si     0.375000000000     0.625000000000     0.875000000000     0          
O        O      0.433100000000     0.963100000000     0.865200000000     0          
O        O      0.409400000000     0.901100000000     0.900900000000     0          
O        O      0.426950000000     0.963100000000     0.938350000000     0          
T        Si     0.442400000000     0.938750000000     0.902350000000     0          
T        Si     0.375000000000     0.875000000000     0.875000000000     0          
O        O      0.066900000000     0.536900000000     0.865200000000     0          
O        O      0.090600000000     0.598900000000     0.900900000000     0          
O        O      0.073050000000     0.536900000000     0.938350000000     0          
T        Si     0.057600000000     0.561250000000     0.902350000000     0          
T        Si     0.125000000000     0.625000000000     0.875000000000     0          
O        O      0.433100000000     0.536900000000     0.634800000000     0          
O        O      0.409400000000     0.598900000000     0.599100000000     0          
O        O      0.426950000000     0.536900000000     0.561650000000     0          
T        Si     0.442400000000     0.561250000000     0.597650000000     0          
T        Si     0.375000000000     0.625000000000     0.625000000000     0          
O        O      0.066900000000     0.963100000000     0.634800000000     0          
O        O      0.090600000000     0.901100000000     0.599100000000     0          
O        O      0.073050000000     0.963100000000     0.561650000000     0          
T        Si     0.057600000000     0.938750000000     0.597650000000     0          
T        Si     0.125000000000     0.875000000000     0.625000000000     0          
O        O      0.000000000000     0.822450000000     0.844850000000     0          
O        O      0.066900000000     0.786900000000     0.884800000000     0          
O        O      0.090600000000     0.848900000000     0.849100000000     0          
O        O      0.073050000000     0.786900000000     0.811650000000     0          
O        O      0.156900000000     0.750000000000     0.804950000000     0          
O        O      0.092300000000     0.750000000000     0.750000000000     0          
O        O      0.000000000000     0.750000000000     0.923450000000     0          
T        Si     0.057600000000     0.811250000000     0.847650000000     0          
T        Si     0.098900000000     0.750000000000     0.794500000000     0          
T        Si     0.056700000000     0.750000000000     0.909500000000     0          
O        O      0.000000000000     0.677550000000     0.844850000000     0          
O        O      0.433100000000     0.713100000000     0.884800000000     0          
O        O      0.409400000000     0.651100000000     0.849100000000     0          
O        O      0.426950000000     0.713100000000     0.811650000000     0          
O        O      0.343100000000     0.750000000000     0.804950000000     0          
O        O      0.407700000000     0.750000000000     0.750000000000     0          
T        Si     0.442400000000     0.688750000000     0.847650000000     0          
T        Si     0.401100000000     0.750000000000     0.794500000000     0          
T        Si     0.443300000000     0.750000000000     0.909500000000     0          
O        O      0.000000000000     0.677550000000     0.655150000000     0          
O        O      0.066900000000     0.713100000000     0.615200000000     0          
O        O      0.090600000000     0.651100000000     0.650900000000     0          
O        O      0.073050000000     0.713100000000     0.688350000000     0          
O        O      0.156900000000     0.750000000000     0.695050000000     0          
O        O      0.000000000000     0.750000000000     0.576550000000     0          
T        Si     0.057600000000     0.688750000000     0.652350000000     0          
T        Si     0.098900000000     0.750000000000     0.705500000000     0          
T        Si     0.056700000000     0.750000000000     0.590500000000     0          
O        O      0.000000000000     0.822450000000     0.655150000000     0          
O        O      0.433100000000     0.786900000000     0.615200000000     0          
O        O      0.409400000000     0.848900000000     0.650900000000     0          
O        O      0.426950000000     0.786900000000     0.688350000000     0          
O        O      0.343100000000     0.750000000000     0.695050000000     0          
T        Si     0.442400000000     0.811250000000     0.652350000000     0          
T        Si     0.401100000000     0.750000000000     0.705500000000     0          
T        Si     0.443300000000     0.750000000000     0.590500000000     0          
O        O      0.433100000000     0.713100000000     0.615200000000     0          
O        O      0.409400000000     0.651100000000     0.650900000000     0          
O        O      0.426950000000     0.713100000000     0.688350000000     0          
T        Si     0.442400000000     0.688750000000     0.652350000000     0          
O        O      0.066900000000     0.786900000000     0.615200000000     0          
O        O      0.090600000000     0.848900000000     0.650900000000     0          
O        O      0.073050000000     0.786900000000     0.688350000000     0          
T        Si     0.057600000000     0.811250000000     0.652350000000     0          
O        O      0.433100000000     0.786900000000     0.884800000000     0          
O        O      0.409400000000     0.848900000000     0.849100000000     0          
O        O      0.426950000000     0.786900000000     0.811650000000     0          
T        Si     0.442400000000     0.811250000000     0.847650000000     0          
O        O      0.066900000000     0.713100000000     0.884800000000     0          
O        O      0.090600000000     0.651100000000     0.849100000000     0          
O        O      0.073050000000     0.713100000000     0.811650000000     0          
T        Si     0.057600000000     0.688750000000     0.847650000000     0          
O        O      0.250000000000     0.572450000000     0.844850000000     0          
O        O      0.316900000000     0.536900000000     0.884800000000     0          
O        O      0.340600000000     0.598900000000     0.849100000000     0          
O        O      0.323050000000     0.536900000000     0.811650000000     0          
O        O      0.406900000000     0.500000000000     0.804950000000     0          
O        O      0.342300000000     0.500000000000     0.750000000000     0          
O        O      0.250000000000     0.500000000000     0.923450000000     0          
T        Si     0.307600000000     0.561250000000     0.847650000000     0          
T        Si     0.348900000000     0.500000000000     0.794500000000     0          
T        Si     0.306700000000     0.500000000000     0.909500000000     0          
O        O      0.250000000000     0.927550000000     0.844850000000     0          
O        O      0.183100000000     0.963100000000     0.884800000000     0          
O        O      0.159400000000     0.901100000000     0.849100000000     0          
O        O      0.176950000000     0.963100000000     0.811650000000     0          
O        O      0.093100000000     0.500000000000     0.804950000000     0          
O        O      0.157700000000     0.500000000000     0.750000000000     0          
T        Si     0.192400000000     0.938750000000     0.847650000000     0          
T        Si     0.151100000000     0.500000000000     0.794500000000     0          
T        Si     0.193300000000     0.500000000000     0.909500000000     0          
O        O      0.250000000000     0.927550000000     0.655150000000     0          
O        O      0.316900000000     0.963100000000     0.615200000000     0          
O        O      0.340600000000     0.901100000000     0.650900000000     0          
O        O      0.323050000000     0.963100000000     0.688350000000     0          
O        O      0.406900000000     0.500000000000     0.695050000000     0          
O        O      0.250000000000     0.500000000000     0.576550000000     0          
T        Si     0.307600000000     0.938750000000     0.652350000000     0          
T        Si     0.348900000000     0.500000000000     0.705500000000     0          
T        Si     0.306700000000     0.500000000000     0.590500000000     0          
O        O      0.250000000000     0.572450000000     0.655150000000     0          
O        O      0.183100000000     0.536900000000     0.615200000000     0          
O        O      0.159400000000     0.598900000000     0.650900000000     0          
O        O      0.176950000000     0.536900000000     0.688350000000     0          
O        O      0.093100000000     0.500000000000     0.695050000000     0          
T        Si     0.192400000000     0.561250000000     0.652350000000     0          
T        Si     0.151100000000     0.500000000000     0.705500000000     0          
T        Si     0.193300000000     0.500000000000     0.590500000000     0          
O        O      0.183100000000     0.963100000000     0.615200000000     0          
O        O      0.159400000000     0.901100000000     0.650900000000     0          
O        O      0.176950000000     0.963100000000     0.688350000000     0          
T        Si     0.192400000000     0.938750000000     0.652350000000     0          
O        O      0.316900000000     0.536900000000     0.615200000000     0          
O        O      0.340600000000     0.598900000000     0.650900000000     0          
O        O      0.323050000000     0.536900000000     0.688350000000     0          
T        Si     0.307600000000     0.561250000000     0.652350000000     0          
O        O      0.183100000000     0.536900000000     0.884800000000     0          
O        O      0.159400000000     0.598900000000     0.849100000000     0          
O        O      0.176950000000     0.536900000000     0.811650000000     0          
T        Si     0.192400000000     0.561250000000     0.847650000000     0          
O        O      0.316900000000     0.963100000000     0.884800000000     0          
O        O      0.340600000000     0.901100000000     0.849100000000     0          
O        O      0.323050000000     0.963100000000     0.811650000000     0          
T        Si     0.307600000000     0.938750000000     0.847650000000     0          
O        O      0.250000000000     0.822450000000     0.594850000000     0          
O        O      0.316900000000     0.786900000000     0.634800000000     0          
O        O      0.340600000000     0.848900000000     0.599100000000     0          
O        O      0.323050000000     0.786900000000     0.561650000000     0          
O        O      0.406900000000     0.750000000000     0.554950000000     0          
O        O      0.342300000000     0.750000000000     0.500000000000     0          
O        O      0.250000000000     0.750000000000     0.673450000000     0          
T        Si     0.307600000000     0.811250000000     0.597650000000     0          
T        Si     0.348900000000     0.750000000000     0.544500000000     0          
T        Si     0.306700000000     0.750000000000     0.659500000000     0          
O        O      0.250000000000     0.677550000000     0.594850000000     0          
O        O      0.183100000000     0.713100000000     0.634800000000     0          
O        O      0.159400000000     0.651100000000     0.599100000000     0          
O        O      0.176950000000     0.713100000000     0.561650000000     0          
O        O      0.093100000000     0.750000000000     0.554950000000     0          
O        O      0.157700000000     0.750000000000     0.500000000000     0          
T        Si     0.192400000000     0.688750000000     0.597650000000     0          
T        Si     0.151100000000     0.750000000000     0.544500000000     0          
T        Si     0.193300000000     0.750000000000     0.659500000000     0          
O        O      0.250000000000     0.677550000000     0.905150000000     0          
O        O      0.316900000000     0.713100000000     0.865200000000     0          
O        O      0.340600000000     0.651100000000     0.900900000000     0          
O        O      0.323050000000     0.713100000000     0.938350000000     0          
O        O      0.406900000000     0.750000000000     0.945050000000     0          
O        O      0.250000000000     0.750000000000     0.826550000000     0          
T        Si     0.307600000000     0.688750000000     0.902350000000     0          
T        Si     0.348900000000     0.750000000000     0.955500000000     0          
T        Si     0.306700000000     0.750000000000     0.840500000000     0          
O        O      0.250000000000     0.822450000000     0.905150000000     0          
O        O      0.183100000000     0.786900000000     0.865200000000     0          
O        O      0.159400000000     0.848900000000     0.900900000000     0          
O        O      0.176950000000     0.786900000000     0.938350000000     0          
O        O      0.093100000000     0.750000000000     0.945050000000     0          
T        Si     0.192400000000     0.811250000000     0.902350000000     0          
T        Si     0.151100000000     0.750000000000     0.955500000000     0          
T        Si     0.193300000000     0.750000000000     0.840500000000     0          
O        O      0.183100000000     0.713100000000     0.865200000000     0          
O        O      0.159400000000     0.651100000000     0.900900000000     0          
O        O      0.176950000000     0.713100000000     0.938350000000     0          
T        Si     0.192400000000     0.688750000000     0.902350000000     0          
O        O      0.316900000000     0.786900000000     0.865200000000     0          
O        O      0.340600000000     0.848900000000     0.900900000000     0          
O        O      0.323050000000     0.786900000000     0.938350000000     0          
T        Si     0.307600000000     0.811250000000     0.902350000000     0          
O        O      0.183100000000     0.786900000000     0.634800000000     0          
O        O      0.159400000000     0.848900000000     0.599100000000     0          
O        O      0.176950000000     0.786900000000     0.561650000000     0          
T        Si     0.192400000000     0.811250000000     0.597650000000     0          
O        O      0.316900000000     0.713100000000     0.634800000000     0          
O        O      0.340600000000     0.651100000000     0.599100000000     0          
O        O      0.323050000000     0.713100000000     0.561650000000     0          
T        Si     0.307600000000     0.688750000000     0.597650000000     0          
O        O      0.500000000000     0.072450000000     0.094850000000     0          
O        O      0.566900000000     0.036900000000     0.134800000000     0          
O        O      0.590600000000     0.098900000000     0.099100000000     0          
O        O      0.573050000000     0.036900000000     0.061650000000     0          
O        O      0.656900000000     0.000000000000     0.054950000000     0          
O        O      0.592300000000     0.000000000000     0.000000000000     0          
O        O      0.500000000000     0.000000000000     0.173450000000     0          
T        Si     0.557600000000     0.061250000000     0.097650000000     0          
T        Si     0.598900000000     0.000000000000     0.044500000000     0          
T        Si     0.556700000000     0.000000000000     0.159500000000     0          
T        Si     0.625000000000     0.125000000000     0.125000000000     0          
O        O      0.500000000000     0.427550000000     0.094850000000     0          
O        O      0.933100000000     0.463100000000     0.134800000000     0          
O        O      0.909400000000     0.401100000000     0.099100000000     0          
O        O      0.926950000000     0.463100000000     0.061650000000     0          
O        O      0.843100000000     0.000000000000     0.054950000000     0          
O        O      0.907700000000     0.000000000000     0.000000000000     0          
T        Si     0.942400000000     0.438750000000     0.097650000000     0          
T        Si     0.901100000000     0.000000000000     0.044500000000     0          
T        Si     0.943300000000     0.000000000000     0.159500000000     0          
T        Si     0.875000000000     0.375000000000     0.125000000000     0          
O        O      0.500000000000     0.427550000000     0.405150000000     0          
O        O      0.566900000000     0.463100000000     0.365200000000     0          
O        O      0.590600000000     0.401100000000     0.400900000000     0          
O        O      0.573050000000     0.463100000000     0.438350000000     0          
O        O      0.656900000000     0.000000000000     0.445050000000     0          
O        O      0.500000000000     0.000000000000     0.326550000000     0          
T        Si     0.557600000000     0.438750000000     0.402350000000     0          
T        Si     0.598900000000     0.000000000000     0.455500000000     0          
T        Si     0.556700000000     0.000000000000     0.340500000000     0          
T        Si     0.625000000000     0.375000000000     0.375000000000     0          
O        O      0.500000000000     0.072450000000     0.405150000000     0          
O        O      0.933100000000     0.036900000000     0.365200000000     0          
O        O      0.909400000000     0.098900000000     0.400900000000     0          
O        O      0.926950000000     0.036900000000     0.438350000000     0          
O        O      0.843100000000     0.000000000000     0.445050000000     0          
T        Si     0.942400000000     0.061250000000     0.402350000000     0          
T        Si     0.901100000000     0.000000000000     0.455500000000     0          
T        Si     0.943300000000     0.000000000000     0.340500000000     0          
T        Si     0.875000000000     0.125000000000     0.375000000000     0          
O        O      0.933100000000     0.463100000000     0.365200000000     0          
O        O      0.909400000000     0.401100000000     0.400900000000     0          
O        O      0.926950000000     0.463100000000     0.438350000000     0          
T        Si     0.942400000000     0.438750000000     0.402350000000     0          
T        Si     0.875000000000     0.375000000000     0.375000000000     0          
O        O      0.566900000000     0.036900000000     0.365200000000     0          
O        O      0.590600000000     0.098900000000     0.400900000000     0          
O        O      0.573050000000     0.036900000000     0.438350000000     0          
T        Si     0.557600000000     0.061250000000     0.402350000000     0          
T        Si     0.625000000000     0.125000000000     0.375000000000     0          
O        O      0.933100000000     0.036900000000     0.134800000000     0          
O        O      0.909400000000     0.098900000000     0.099100000000     0          
O        O      0.926950000000     0.036900000000     0.061650000000     0          
T        Si     0.942400000000     0.061250000000     0.097650000000     0          
T        Si     0.875000000000     0.125000000000     0.125000000000     0          
O        O      0.566900000000     0.463100000000     0.134800000000     0          
O        O      0.590600000000     0.401100000000     0.099100000000     0          
O        O      0.573050000000     0.463100000000     0.061650000000     0          
T        Si     0.557600000000     0.438750000000     0.097650000000     0          
T        Si     0.625000000000     0.375000000000     0.125000000000     0          
O        O      0.500000000000     0.322450000000     0.344850000000     0          
O        O      0.566900000000     0.286900000000     0.384800000000     0          
O        O      0.590600000000     0.348900000000     0.349100000000     0          
O        O      0.573050000000     0.286900000000     0.311650000000     0          
O        O      0.656900000000     0.250000000000     0.304950000000     0          
O        O      0.592300000000     0.250000000000     0.250000000000     0          
O        O      0.500000000000     0.250000000000     0.423450000000     0          
T        Si     0.557600000000     0.311250000000     0.347650000000     0          
T        Si     0.598900000000     0.250000000000     0.294500000000     0          
T        Si     0.556700000000     0.250000000000     0.409500000000     0          
O        O      0.500000000000     0.177550000000     0.344850000000     0          
O        O      0.933100000000     0.213100000000     0.384800000000     0          
O        O      0.909400000000     0.151100000000     0.349100000000     0          
O        O      0.926950000000     0.213100000000     0.311650000000     0          
O        O      0.843100000000     0.250000000000     0.304950000000     0          
O        O      0.907700000000     0.250000000000     0.250000000000     0          
T        Si     0.942400000000     0.188750000000     0.347650000000     0          
T        Si     0.901100000000     0.250000000000     0.294500000000     0          
T        Si     0.943300000000     0.250000000000     0.409500000000     0          
O        O      0.500000000000     0.177550000000     0.155150000000     0          
O        O      0.566900000000     0.213100000000     0.115200000000     0          
O        O      0.590600000000     0.151100000000     0.150900000000     0          
O        O      0.573050000000     0.213100000000     0.188350000000     0          
O        O      0.656900000000     0.250000000000     0.195050000000     0          
O        O      0.500000000000     0.250000000000     0.076550000000     0          
T        Si     0.557600000000     0.188750000000     0.152350000000     0          
T        Si     0.598900000000     0.250000000000     0.205500000000     0          
T        Si     0.556700000000     0.250000000000     0.090500000000     0          
O        O      0.500000000000     0.322450000000     0.155150000000     0          
O        O      0.933100000000     0.286900000000     0.115200000000     0          
O        O      0.909400000000     0.348900000000     0.150900000000     0          
O        O      0.926950000000     0.286900000000     0.188350000000     0          
O        O      0.843100000000     0.250000000000     0.195050000000     0          
T        Si     0.942400000000     0.311250000000     0.152350000000     0          
T        Si     0.901100000000     0.250000000000     0.205500000000     0          
T        Si     0.943300000000     0.250000000000     0.090500000000     0          
O        O      0.933100000000     0.213100000000     0.115200000000     0          
O        O      0.909400000000     0.151100000000     0.150900000000     0          
O        O      0.926950000000     0.213100000000     0.188350000000     0          
T        Si     0.942400000000     0.188750000000     0.152350000000     0          
O        O      0.566900000000     0.286900000000     0.115200000000     0          
O        O      0.590600000000     0.348900000000     0.150900000000     0          
O        O      0.573050000000     0.286900000000     0.188350000000     0          
T        Si     0.557600000000     0.311250000000     0.152350000000     0          
O        O      0.933100000000     0.286900000000     0.384800000000     0          
O        O      0.909400000000     0.348900000000     0.349100000000     0          
O        O      0.926950000000     0.286900000000     0.311650000000     0          
T        Si     0.942400000000     0.311250000000     0.347650000000     0          
O        O      0.566900000000     0.213100000000     0.384800000000     0          
O        O      0.590600000000     0.151100000000     0.349100000000     0          
O        O      0.573050000000     0.213100000000     0.311650000000     0          
T        Si     0.557600000000     0.188750000000     0.347650000000     0          
O        O      0.750000000000     0.072450000000     0.344850000000     0          
O        O      0.816900000000     0.036900000000     0.384800000000     0          
O        O      0.840600000000     0.098900000000     0.349100000000     0          
O        O      0.823050000000     0.036900000000     0.311650000000     0          
O        O      0.906900000000     0.000000000000     0.304950000000     0          
O        O      0.842300000000     0.000000000000     0.250000000000     0          
O        O      0.750000000000     0.000000000000     0.423450000000     0          
T        Si     0.807600000000     0.061250000000     0.347650000000     0          
T        Si     0.848900000000     0.000000000000     0.294500000000     0          
T        Si     0.806700000000     0.000000000000     0.409500000000     0          
O        O      0.750000000000     0.427550000000     0.344850000000     0          
O        O      0.683100000000     0.463100000000     0.384800000000     0          
O        O      0.659400000000     0.401100000000     0.349100000000     0          
O        O      0.676950000000     0.463100000000     0.311650000000     0          
O        O      0.593100000000     0.000000000000     0.304950000000     0          
O        O      0.657700000000     0.000000000000     0.250000000000     0          
T        Si     0.692400000000     0.438750000000     0.347650000000     0          
T        Si     0.651100000000     0.000000000000     0.294500000000     0          
T        Si     0.693300000000     0.000000000000     0.409500000000     0          
O        O      0.750000000000     0.427550000000     0.155150000000     0          
O        O      0.816900000000     0.463100000000     0.115200000000     0          
O        O      0.840600000000     0.401100000000     0.150900000000     0          
O        O      0.823050000000     0.463100000000     0.188350000000     0          
O        O      0.906900000000     0.000000000000     0.195050000000     0          
O        O      0.750000000000     0.000000000000     0.076550000000     0          
T        Si     0.807600000000     0.438750000000     0.152350000000     0          
T        Si     0.848900000000     0.000000000000     0.205500000000     0          
T        Si     0.806700000000     0.000000000000     0.090500000000     0          
O        O      0.750000000000     0.072450000000     0.155150000000     0          
O        O      0.683100000000     0.036900000000     0.115200000000     0          
O        O      0.659400000000     0.098900000000     0.150900000000     0          
O        O      0.676950000000     0.036900000000     0.188350000000     0          
O        O      0.593100000000     0.000000000000     0.195050000000     0          
T        Si     0.692400000000     0.061250000000     0.152350000000     0          
T        Si     0.651100000000     0.000000000000     0.205500000000     0          
T        Si     0.693300000000     0.000000000000     0.090500000000     0          
O        O      0.683100000000     0.463100000000     0.115200000000     0          
O        O      0.659400000000     0.401100000000     0.150900000000     0          
O        O      0.676950000000     0.463100000000     0.188350000000     0          
T        Si     0.692400000000     0.438750000000     0.152350000000     0          
O        O      0.816900000000     0.036900000000     0.115200000000     0          
O        O      0.840600000000     0.098900000000     0.150900000000     0          
O        O      0.823050000000     0.036900000000     0.188350000000     0          
T        Si     0.807600000000     0.061250000000     0.152350000000     0          
O        O      0.683100000000     0.036900000000     0.384800000000     0          
O        O      0.659400000000     0.098900000000     0.349100000000     0          
O        O      0.676950000000     0.036900000000     0.311650000000     0          
T        Si     0.692400000000     0.061250000000     0.347650000000     0          
O        O      0.816900000000     0.463100000000     0.384800000000     0          
O        O      0.840600000000     0.401100000000     0.349100000000     0          
O        O      0.823050000000     0.463100000000     0.311650000000     0          
T        Si     0.807600000000     0.438750000000     0.347650000000     0          
O        O      0.750000000000     0.322450000000     0.094850000000     0          
O        O      0.816900000000     0.286900000000     0.134800000000     0          
O        O      0.840600000000     0.348900000000     0.099100000000     0          
O        O      0.823050000000     0.286900000000     0.061650000000     0          
O        O      0.906900000000     0.250000000000     0.054950000000     0          
O        O      0.842300000000     0.250000000000     0.000000000000     0          
O        O      0.750000000000     0.250000000000     0.173450000000     0          
T        Si     0.807600000000     0.311250000000     0.097650000000     0          
T        Si     0.848900000000     0.250000000000     0.044500000000     0          
T        Si     0.806700000000     0.250000000000     0.159500000000     0          
O        O      0.750000000000     0.177550000000     0.094850000000     0          
O        O      0.683100000000     0.213100000000     0.134800000000     0          
O        O      0.659400000000     0.151100000000     0.099100000000     0          
O        O      0.676950000000     0.213100000000     0.061650000000     0          
O        O      0.593100000000     0.250000000000     0.054950000000     0          
O        O      0.657700000000     0.250000000000     0.000000000000     0          
T        Si     0.692400000000     0.188750000000     0.097650000000     0          
T        Si     0.651100000000     0.250000000000     0.044500000000     0          
T        Si     0.693300000000     0.250000000000     0.159500000000     0          
O        O      0.750000000000     0.177550000000     0.405150000000     0          
O        O      0.816900000000     0.213100000000     0.365200000000     0          
O        O      0.840600000000     0.151100000000     0.400900000000     0          
O        O      0.823050000000     0.213100000000     0.438350000000     0          
O        O      0.906900000000     0.250000000000     0.445050000000     0          
O        O      0.750000000000     0.250000000000     0.326550000000     0          
T        Si     0.807600000000     0.188750000000     0.402350000000     0          
T        Si     0.848900000000     0.250000000000     0.455500000000     0          
T        Si     0.806700000000     0.250000000000     0.340500000000     0          
O        O      0.750000000000     0.322450000000     0.405150000000     0          
O        O      0.683100000000     0.286900000000     0.365200000000     0          
O        O      0.659400000000     0.348900000000     0.400900000000     0          
O        O      0.676950000000     0.286900000000     0.438350000000     0          
O        O      0.593100000000     0.250000000000     0.445050000000     0          
T        Si     0.692400000000     0.311250000000     0.402350000000     0          
T        Si     0.651100000000     0.250000000000     0.455500000000     0          
T        Si     0.693300000000     0.250000000000     0.340500000000     0          
O        O      0.683100000000     0.213100000000     0.365200000000     0          
O        O      0.659400000000     0.151100000000     0.400900000000     0          
O        O      0.676950000000     0.213100000000     0.438350000000     0          
T        Si     0.692400000000     0.188750000000     0.402350000000     0          
O        O      0.816900000000     0.286900000000     0.365200000000     0          
O        O      0.840600000000     0.348900000000     0.400900000000     0          
O        O      0.823050000000     0.286900000000     0.438350000000     0          
T        Si     0.807600000000     0.311250000000     0.402350000000     0          
O        O      0.683100000000     0.286900000000     0.134800000000     0          
O        O      0.659400000000     0.348900000000     0.099100000000     0          
O        O      0.676950000000     0.286900000000     0.061650000000     0          
T        Si     0.692400000000     0.311250000000     0.097650000000     0          
O        O      0.816900000000     0.213100000000     0.134800000000     0          
O        O      0.840600000000     0.151100000000     0.099100000000     0          
O        O      0.823050000000     0.213100000000     0.061650000000     0          
T        Si     0.807600000000     0.188750000000     0.097650000000     0          
O        O      0.500000000000     0.072450000000     0.594850000000     0          
O        O      0.566900000000     0.036900000000     0.634800000000     0          
O        O      0.590600000000     0.098900000000     0.599100000000     0          
O        O      0.573050000000     0.036900000000     0.561650000000     0          
O        O      0.656900000000     0.000000000000     0.554950000000     0          
O        O      0.592300000000     0.000000000000     0.500000000000     0          
O        O      0.500000000000     0.000000000000     0.673450000000     0          
T        Si     0.557600000000     0.061250000000     0.597650000000     0          
T        Si     0.598900000000     0.000000000000     0.544500000000     0          
T        Si     0.556700000000     0.000000000000     0.659500000000     0          
T        Si     0.625000000000     0.125000000000     0.625000000000     0          
O        O      0.500000000000     0.427550000000     0.594850000000     0          
O        O      0.933100000000     0.463100000000     0.634800000000     0          
O        O      0.909400000000     0.401100000000     0.599100000000     0          
O        O      0.926950000000     0.463100000000     0.561650000000     0          
O        O      0.843100000000     0.000000000000     0.554950000000     0          
O        O      0.907700000000     0.000000000000     0.500000000000     0          
T        Si     0.942400000000     0.438750000000     0.597650000000     0          
T        Si     0.901100000000     0.000000000000     0.544500000000     0          
T        Si     0.943300000000     0.000000000000     0.659500000000     0          
T        Si     0.875000000000     0.375000000000     0.625000000000     0          
O        O      0.500000000000     0.427550000000     0.905150000000     0          
O        O      0.566900000000     0.463100000000     0.865200000000     0          
O        O      0.590600000000     0.401100000000     0.900900000000     0          
O        O      0.573050000000     0.463100000000     0.938350000000     0          
O        O      0.656900000000     0.000000000000     0.945050000000     0          
O        O      0.500000000000     0.000000000000     0.826550000000     0          
T        Si     0.557600000000     0.438750000000     0.902350000000     0          
T        Si     0.598900000000     0.000000000000     0.955500000000     0          
T        Si     0.556700000000     0.000000000000     0.840500000000     0          
T        Si     0.625000000000     0.375000000000     0.875000000000     0          
O        O      0.500000000000     0.072450000000     0.905150000000     0          
O        O      0.933100000000     0.036900000000     0.865200000000     0          
O        O      0.909400000000     0.098900000000     0.900900000000     0          
O        O      0.926950000000     0.036900000000     0.938350000000     0          
O        O      0.843100000000     0.000000000000     0.945050000000     0          
T        Si     0.942400000000     0.061250000000     0.902350000000     0          
T        Si     0.901100000000     0.000000000000     0.955500000000     0          
T        Si     0.943300000000     0.000000000000     0.840500000000     0          
T        Si     0.875000000000     0.125000000000     0.875000000000     0          
O        O      0.933100000000     0.463100000000     0.865200000000     0          
O        O      0.909400000000     0.401100000000     0.900900000000     0          
O        O      0.926950000000     0.463100000000     0.938350000000     0          
T        Si     0.942400000000     0.438750000000     0.902350000000     0          
T        Si     0.875000000000     0.375000000000     0.875000000000     0          
O        O      0.566900000000     0.036900000000     0.865200000000     0          
O        O      0.590600000000     0.098900000000     0.900900000000     0          
O        O      0.573050000000     0.036900000000     0.938350000000     0          
T        Si     0.557600000000     0.061250000000     0.902350000000     0          
T        Si     0.625000000000     0.125000000000     0.875000000000     0          
O        O      0.933100000000     0.036900000000     0.634800000000     0          
O        O      0.909400000000     0.098900000000     0.599100000000     0          
O        O      0.926950000000     0.036900000000     0.561650000000     0          
T        Si     0.942400000000     0.061250000000     0.597650000000     0          
T        Si     0.875000000000     0.125000000000     0.625000000000     0          
O        O      0.566900000000     0.463100000000     0.634800000000     0          
O        O      0.590600000000     0.401100000000     0.599100000000     0          
O        O      0.573050000000     0.463100000000     0.561650000000     0          
T        Si     0.557600000000     0.438750000000     0.597650000000     0          
T        Si     0.625000000000     0.375000000000     0.625000000000     0          
O        O      0.500000000000     0.322450000000     0.844850000000     0          
O        O      0.566900000000     0.286900000000     0.884800000000     0          
O        O      0.590600000000     0.348900000000     0.849100000000     0          
O        O      0.573050000000     0.286900000000     0.811650000000     0          
O        O      0.656900000000     0.250000000000     0.804950000000     0          
O        O      0.592300000000     0.250000000000     0.750000000000     0          
O        O      0.500000000000     0.250000000000     0.923450000000     0          
T        Si     0.557600000000     0.311250000000     0.847650000000     0          
T        Si     0.598900000000     0.250000000000     0.794500000000     0          
T        Si     0.556700000000     0.250000000000     0.909500000000     0          
O        O      0.500000000000     0.177550000000     0.844850000000     0          
O        O      0.933100000000     0.213100000000     0.884800000000     0          
O        O      0.909400000000     0.151100000000     0.849100000000     0          
O        O      0.926950000000     0.213100000000     0.811650000000     0          
O        O      0.843100000000     0.250000000000     0.804950000000     0          
O        O      0.907700000000     0.250000000000     0.750000000000     0          
T        Si     0.942400000000     0.188750000000     0.847650000000     0          
T        Si     0.901100000000     0.250000000000     0.794500000000     0          
T        Si     0.943300000000     0.250000000000     0.909500000000     0          
O        O      0.500000000000     0.177550000000     0.655150000000     0          
O        O      0.566900000000     0.213100000000     0.615200000000     0          
O        O      0.590600000000     0.151100000000     0.650900000000     0          
O        O      0.573050000000     0.213100000000     0.688350000000     0          
O        O      0.656900000000     0.250000000000     0.695050000000     0          
O        O      0.500000000000     0.250000000000     0.576550000000     0          
T        Si     0.557600000000     0.188750000000     0.652350000000     0          
T        Si     0.598900000000     0.250000000000     0.705500000000     0          
T        Si     0.556700000000     0.250000000000     0.590500000000     0          
O        O      0.500000000000     0.322450000000     0.655150000000     0          
O        O      0.933100000000     0.286900000000     0.615200000000     0          
O        O      0.909400000000     0.348900000000     0.650900000000     0          
O        O      0.926950000000     0.286900000000     0.688350000000     0          
O        O      0.843100000000     0.250000000000     0.695050000000     0          
T        Si     0.942400000000     0.311250000000     0.652350000000     0          
T        Si     0.901100000000     0.250000000000     0.705500000000     0          
T        Si     0.943300000000     0.250000000000     0.590500000000     0          
O        O      0.933100000000     0.213100000000     0.615200000000     0          
O        O      0.909400000000     0.151100000000     0.650900000000     0          
O        O      0.926950000000     0.213100000000     0.688350000000     0          
T        Si     0.942400000000     0.188750000000     0.652350000000     0          
O        O      0.566900000000     0.286900000000     0.615200000000     0          
O        O      0.590600000000     0.348900000000     0.650900000000     0          
O        O      0.573050000000     0.286900000000     0.688350000000     0          
T        Si     0.557600000000     0.311250000000     0.652350000000     0          
O        O      0.933100000000     0.286900000000     0.884800000000     0          
O        O      0.909400000000     0.348900000000     0.849100000000     0          
O        O      0.926950000000     0.286900000000     0.811650000000     0          
T        Si     0.942400000000     0.311250000000     0.847650000000     0          
O        O      0.566900000000     0.213100000000     0.884800000000     0          
O        O      0.590600000000     0.151100000000     0.849100000000     0          
O        O      0.573050000000     0.213100000000     0.811650000000     0          
T        Si     0.557600000000     0.188750000000     0.847650000000     0          
O        O      0.750000000000     0.072450000000     0.844850000000     0          
O        O      0.816900000000     0.036900000000     0.884800000000     0          
O        O      0.840600000000     0.098900000000     0.849100000000     0          
O        O      0.823050000000     0.036900000000     0.811650000000     0          
O        O      0.906900000000     0.000000000000     0.804950000000     0          
O        O      0.842300000000     0.000000000000     0.750000000000     0          
O        O      0.750000000000     0.000000000000     0.923450000000     0          
T        Si     0.807600000000     0.061250000000     0.847650000000     0          
T        Si     0.848900000000     0.000000000000     0.794500000000     0          
T        Si     0.806700000000     0.000000000000     0.909500000000     0          
O        O      0.750000000000     0.427550000000     0.844850000000     0          
O        O      0.683100000000     0.463100000000     0.884800000000     0          
O        O      0.659400000000     0.401100000000     0.849100000000     0          
O        O      0.676950000000     0.463100000000     0.811650000000     0          
O        O      0.593100000000     0.000000000000     0.804950000000     0          
O        O      0.657700000000     0.000000000000     0.750000000000     0          
T        Si     0.692400000000     0.438750000000     0.847650000000     0          
T        Si     0.651100000000     0.000000000000     0.794500000000     0          
T        Si     0.693300000000     0.000000000000     0.909500000000     0          
O        O      0.750000000000     0.427550000000     0.655150000000     0          
O        O      0.816900000000     0.463100000000     0.615200000000     0          
O        O      0.840600000000     0.401100000000     0.650900000000     0          
O        O      0.823050000000     0.463100000000     0.688350000000     0          
O        O      0.906900000000     0.000000000000     0.695050000000     0          
O        O      0.750000000000     0.000000000000     0.576550000000     0          
T        Si     0.807600000000     0.438750000000     0.652350000000     0          
T        Si     0.848900000000     0.000000000000     0.705500000000     0          
T        Si     0.806700000000     0.000000000000     0.590500000000     0          
O        O      0.750000000000     0.072450000000     0.655150000000     0          
O        O      0.683100000000     0.036900000000     0.615200000000     0          
O        O      0.659400000000     0.098900000000     0.650900000000     0          
O        O      0.676950000000     0.036900000000     0.688350000000     0          
O        O      0.593100000000     0.000000000000     0.695050000000     0          
T        Si     0.692400000000     0.061250000000     0.652350000000     0          
T        Si     0.651100000000     0.000000000000     0.705500000000     0          
T        Si     0.693300000000     0.000000000000     0.590500000000     0          
O        O      0.683100000000     0.463100000000     0.615200000000     0          
O        O      0.659400000000     0.401100000000     0.650900000000     0          
O        O      0.676950000000     0.463100000000     0.688350000000     0          
T        Si     0.692400000000     0.438750000000     0.652350000000     0          
O        O      0.816900000000     0.036900000000     0.615200000000     0          
O        O      0.840600000000     0.098900000000     0.650900000000     0          
O        O      0.823050000000     0.036900000000     0.688350000000     0          
T        Si     0.807600000000     0.061250000000     0.652350000000     0          
O        O      0.683100000000     0.036900000000     0.884800000000     0          
O        O      0.659400000000     0.098900000000     0.849100000000     0          
O        O      0.676950000000     0.036900000000     0.811650000000     0          
T        Si     0.692400000000     0.061250000000     0.847650000000     0          
O        O      0.816900000000     0.463100000000     0.884800000000     0          
O        O      0.840600000000     0.401100000000     0.849100000000     0          
O        O      0.823050000000     0.463100000000     0.811650000000     0          
T        Si     0.807600000000     0.438750000000     0.847650000000     0          
O        O      0.750000000000     0.322450000000     0.594850000000     0          
O        O      0.816900000000     0.286900000000     0.634800000000     0          
O        O      0.840600000000     0.348900000000     0.599100000000     0          
O        O      0.823050000000     0.286900000000     0.561650000000     0          
O        O      0.906900000000     0.250000000000     0.554950000000     0          
O        O      0.842300000000     0.250000000000     0.500000000000     0          
O        O      0.750000000000     0.250000000000     0.673450000000     0          
T        Si     0.807600000000     0.311250000000     0.597650000000     0          
T        Si     0.848900000000     0.250000000000     0.544500000000     0          
T        Si     0.806700000000     0.250000000000     0.659500000000     0          
O        O      0.750000000000     0.177550000000     0.594850000000     0          
O        O      0.683100000000     0.213100000000     0.634800000000     0          
O        O      0.659400000000     0.151100000000     0.599100000000     0          
O        O      0.676950000000     0.213100000000     0.561650000000     0          
O        O      0.593100000000     0.250000000000     0.554950000000     0          
O        O      0.657700000000     0.250000000000     0.500000000000     0          
T        Si     0.692400000000     0.188750000000     0.597650000000     0          
T        Si     0.651100000000     0.250000000000     0.544500000000     0          
T        Si     0.693300000000     0.250000000000     0.659500000000     0          
O        O      0.750000000000     0.177550000000     0.905150000000     0          
O        O      0.816900000000     0.213100000000     0.865200000000     0          
O        O      0.840600000000     0.151100000000     0.900900000000     0          
O        O      0.823050000000     0.213100000000     0.938350000000     0          
O        O      0.906900000000     0.250000000000     0.945050000000     0          
O        O      0.750000000000     0.250000000000     0.826550000000     0          
T        Si     0.807600000000     0.188750000000     0.902350000000     0          
T        Si     0.848900000000     0.250000000000     0.955500000000     0          
T        Si     0.806700000000     0.250000000000     0.840500000000     0          
O        O      0.750000000000     0.322450000000     0.905150000000     0          
O        O      0.683100000000     0.286900000000     0.865200000000     0          
O        O      0.659400000000     0.348900000000     0.900900000000     0          
O        O      0.676950000000     0.286900000000     0.938350000000     0          
O        O      0.593100000000     0.250000000000     0.945050000000     0          
T        Si     0.692400000000     0.311250000000     0.902350000000     0          
T        Si     0.651100000000     0.250000000000     0.955500000000     0          
T        Si     0.693300000000     0.250000000000     0.840500000000     0          
O        O      0.683100000000     0.213100000000     0.865200000000     0          
O        O      0.659400000000     0.151100000000     0.900900000000     0          
O        O      0.676950000000     0.213100000000     0.938350000000     0          
T        Si     0.692400000000     0.188750000000     0.902350000000     0          
O        O      0.816900000000     0.286900000000     0.865200000000     0          
O        O      0.840600000000     0.348900000000     0.900900000000     0          
O        O      0.823050000000     0.286900000000     0.938350000000     0          
T        Si     0.807600000000     0.311250000000     0.902350000000     0          
O        O      0.683100000000     0.286900000000     0.634800000000     0          
O        O      0.659400000000     0.348900000000     0.599100000000     0          
O        O      0.676950000000     0.286900000000     0.561650000000     0          
T        Si     0.692400000000     0.311250000000     0.597650000000     0          
O        O      0.816900000000     0.213100000000     0.634800000000     0          
O        O      0.840600000000     0.151100000000     0.599100000000     0          
O        O      0.823050000000     0.213100000000     0.561650000000     0          
T        Si     0.807600000000     0.188750000000     0.597650000000     0          
O        O      0.500000000000     0.572450000000     0.094850000000     0          
O        O      0.566900000000     0.536900000000     0.134800000000     0          
O        O      0.590600000000     0.598900000000     0.099100000000     0          
O        O      0.573050000000     0.536900000000     0.061650000000     0          
O        O      0.656900000000     0.500000000000     0.054950000000     0          
O        O      0.592300000000     0.500000000000     0.000000000000     0          
O        O      0.500000000000     0.500000000000     0.173450000000     0          
T        Si     0.557600000000     0.561250000000     0.097650000000     0          
T        Si     0.598900000000     0.500000000000     0.044500000000     0          
T        Si     0.556700000000     0.500000000000     0.159500000000     0          
T        Si     0.625000000000     0.625000000000     0.125000000000     0          
O        O      0.500000000000     0.927550000000     0.094850000000     0          
O        O      0.933100000000     0.963100000000     0.134800000000     0          
O        O      0.909400000000     0.901100000000     0.099100000000     0          
O        O      0.926950000000     0.963100000000     0.061650000000     0          
O        O      0.843100000000     0.500000000000     0.054950000000     0          
O        O      0.907700000000     0.500000000000     0.000000000000     0          
T        Si     0.942400000000     0.938750000000     0.097650000000     0          
T        Si     0.901100000000     0.500000000000     0.044500000000     0          
T        Si     0.943300000000     0.500000000000     0.159500000000     0          
T        Si     0.875000000000     0.875000000000     0.125000000000     0          
O        O      0.500000000000     0.927550000000     0.405150000000     0          
O        O      0.566900000000     0.963100000000     0.365200000000     0          
O        O      0.590600000000     0.901100000000     0.400900000000     0          
O        O      0.573050000000     0.963100000000     0.438350000000     0          
O        O      0.656900000000     0.500000000000     0.445050000000     0          
O        O      0.500000000000     0.500000000000     0.326550000000     0          
T        Si     0.557600000000     0.938750000000     0.402350000000     0          
T        Si     0.598900000000     0.500000000000     0.455500000000     0          
T        Si     0.556700000000     0.500000000000     0.340500000000     0          
T        Si     0.625000000000     0.875000000000     0.375000000000     0          
O        O      0.500000000000     0.572450000000     0.405150000000     0          
O        O      0.933100000000     0.536900000000     0.365200000000     0          
O        O      0.909400000000     0.598900000000     0.400900000000     0          
O        O      0.926950000000     0.536900000000     0.438350000000     0          
O        O      0.843100000000     0.500000000000     0.445050000000     0          
T        Si     0.942400000000     0.561250000000     0.402350000000     0          
T        Si     0.901100000000     0.500000000000     0.455500000000     0          
T        Si     0.943300000000     0.500000000000     0.340500000000     0          
T        Si     0.875000000000     0.625000000000     0.375000000000     0          
O        O      0.933100000000     0.963100000000     0.365200000000     0          
O        O      0.909400000000     0.901100000000     0.400900000000     0          
O        O      0.926950000000     0.963100000000     0.438350000000     0          
T        Si     0.942400000000     0.938750000000     0.402350000000     0          
T        Si     0.875000000000     0.875000000000     0.375000000000     0          
O        O      0.566900000000     0.536900000000     0.365200000000     0          
O        O      0.590600000000     0.598900000000     0.400900000000     0          
O        O      0.573050000000     0.536900000000     0.438350000000     0          
T        Si     0.557600000000     0.561250000000     0.402350000000     0          
T        Si     0.625000000000     0.625000000000     0.375000000000     0          
O        O      0.933100000000     0.536900000000     0.134800000000     0          
O        O      0.909400000000     0.598900000000     0.099100000000     0          
O        O      0.926950000000     0.536900000000     0.061650000000     0          
T        Si     0.942400000000     0.561250000000     0.097650000000     0          
T        Si     0.875000000000     0.625000000000     0.125000000000     0          
O        O      0.566900000000     0.963100000000     0.134800000000     0          
O        O      0.590600000000     0.901100000000     0.099100000000     0          
O        O      0.573050000000     0.963100000000     0.061650000000     0          
T        Si     0.557600000000     0.938750000000     0.097650000000     0          
T        Si     0.625000000000     0.875000000000     0.125000000000     0          
O        O      0.500000000000     0.822450000000     0.344850000000     0          
O        O      0.566900000000     0.786900000000     0.384800000000     0          
O        O      0.590600000000     0.848900000000     0.349100000000     0          
O        O      0.573050000000     0.786900000000     0.311650000000     0          
O        O      0.656900000000     0.750000000000     0.304950000000     0          
O        O      0.592300000000     0.750000000000     0.250000000000     0          
O        O      0.500000000000     0.750000000000     0.423450000000     0          
T        Si     0.557600000000     0.811250000000     0.347650000000     0          
T        Si     0.598900000000     0.750000000000     0.294500000000     0          
T        Si     0.556700000000     0.750000000000     0.409500000000     0          
O        O      0.500000000000     0.677550000000     0.344850000000     0          
O        O      0.933100000000     0.713100000000     0.384800000000     0          
O        O      0.909400000000     0.651100000000     0.349100000000     0          
O        O      0.926950000000     0.713100000000     0.311650000000     0          
O        O      0.843100000000     0.750000000000     0.304950000000     0          
O        O      0.907700000000     0.750000000000     0.250000000000     0          
T        Si     0.942400000000     0.688750000000     0.347650000000     0          
T        Si     0.901100000000     0.750000000000     0.294500000000     0          
T        Si     0.943300000000     0.750000000000     0.409500000000     0          
O        O      0.500000000000     0.677550000000     0.155150000000     0          
O        O      0.566900000000     0.713100000000     0.115200000000     0          
O        O      0.590600000000     0.651100000000     0.150900000000     0          
O        O      0.573050000000     0.713100000000     0.188350000000     0          
O        O      0.656900000000     0.750000000000     0.195050000000     0          
O        O      0.500000000000     0.750000000000     0.076550000000     0          
T        Si     0.557600000000     0.688750000000     0.152350000000     0          
T        Si     0.598900000000     0.750000000000     0.205500000000     0          
T        Si     0.556700000000     0.750000000000     0.090500000000     0          
O        O      0.500000000000     0.822450000000     0.155150000000     0          
O        O      0.933100000000     0.786900000000     0.115200000000     0          
O        O      0.909400000000     0.848900000000     0.150900000000     0          
O        O      0.926950000000     0.786900000000     0.188350000000     0          
O        O      0.843100000000     0.750000000000     0.195050000000     0          
T        Si     0.942400000000     0.811250000000     0.152350000000     0          
T        Si     0.901100000000     0.750000000000     0.205500000000     0          
T        Si     0.943300000000     0.750000000000     0.090500000000     0          
O        O      0.933100000000     0.713100000000     0.115200000000     0          
O        O      0.909400000000     0.651100000000     0.150900000000     0          
O        O      0.926950000000     0.713100000000     0.188350000000     0          
T        Si     0.942400000000     0.688750000000     0.152350000000     0          
O        O      0.566900000000     0.786900000000     0.115200000000     0          
O        O      0.590600000000     0.848900000000     0.150900000000     0          
O        O      0.573050000000     0.786900000000     0.188350000000     0          
T        Si     0.557600000000     0.811250000000     0.152350000000     0          
O        O      0.933100000000     0.786900000000     0.384800000000     0          
O        O      0.909400000000     0.848900000000     0.349100000000     0          
O        O      0.926950000000     0.786900000000     0.311650000000     0          
T        Si     0.942400000000     0.811250000000     0.347650000000     0          
O        O      0.566900000000     0.713100000000     0.384800000000     0          
O        O      0.590600000000     0.651100000000     0.349100000000     0          
O        O      0.573050000000     0.713100000000     0.311650000000     0          
T        Si     0.557600000000     0.688750000000     0.347650000000     0          
O        O      0.750000000000     0.572450000000     0.344850000000     0          
O        O      0.816900000000     0.536900000000     0.384800000000     0          
O        O      0.840600000000     0.598900000000     0.349100000000     0          
O        O      0.823050000000     0.536900000000     0.311650000000     0          
O        O      0.906900000000     0.500000000000     0.304950000000     0          
O        O      0.842300000000     0.500000000000     0.250000000000     0          
O        O      0.750000000000     0.500000000000     0.423450000000     0          
T        Si     0.807600000000     0.561250000000     0.347650000000     0          
T        Si     0.848900000000     0.500000000000     0.294500000000     0          
T        Si     0.806700000000     0.500000000000     0.409500000000     0          
O        O      0.750000000000     0.927550000000     0.344850000000     0          
O        O      0.683100000000     0.963100000000     0.384800000000     0          
O        O      0.659400000000     0.901100000000     0.349100000000     0          
O        O      0.676950000000     0.963100000000     0.311650000000     0          
O        O      0.593100000000     0.500000000000     0.304950000000     0          
O        O      0.657700000000     0.500000000000     0.250000000000     0          
T        Si     0.692400000000     0.938750000000     0.347650000000     0          
T        Si     0.651100000000     0.500000000000     0.294500000000     0          
T        Si     0.693300000000     0.500000000000     0.409500000000     0          
O        O      0.750000000000     0.927550000000     0.155150000000     0          
O        O      0.816900000000     0.963100000000     0.115200000000     0          
O        O      0.840600000000     0.901100000000     0.150900000000     0          
O        O      0.823050000000     0.963100000000     0.188350000000     0          
O        O      0.906900000000     0.500000000000     0.195050000000     0          
O        O      0.750000000000     0.500000000000     0.076550000000     0          
T        Si     0.807600000000     0.938750000000     0.152350000000     0          
T        Si     0.848900000000     0.500000000000     0.205500000000     0          
T        Si     0.806700000000     0.500000000000     0.090500000000     0          
O        O      0.750000000000     0.572450000000     0.155150000000     0          
O        O      0.683100000000     0.536900000000     0.115200000000     0          
O        O      0.659400000000     0.598900000000     0.150900000000     0          
O        O      0.676950000000     0.536900000000     0.188350000000     0          
O        O      0.593100000000     0.500000000000     0.195050000000     0          
T        Si     0.692400000000     0.561250000000     0.152350000000     0          
T        Si     0.651100000000     0.500000000000     0.205500000000     0          
T        Si     0.693300000000     0.500000000000     0.090500000000     0          
O        O      0.683100000000     0.963100000000     0.115200000000     0          
O        O      0.659400000000     0.901100000000     0.150900000000     0          
O        O      0.676950000000     0.963100000000     0.188350000000     0          
T        Si     0.692400000000     0.938750000000     0.152350000000     0          
O        O      0.816900000000     0.536900000000     0.115200000000     0          
O        O      0.840600000000     0.598900000000     0.150900000000     0          
O        O      0.823050000000     0.536900000000     0.188350000000     0          
T        Si     0.807600000000     0.561250000000     0.152350000000     0          
O        O      0.683100000000     0.536900000000     0.384800000000     0          
O        O      0.659400000000     0.598900000000     0.349100000000     0          
O        O      0.676950000000     0.536900000000     0.311650000000     0          
T        Si     0.692400000000     0.561250000000     0.347650000000     0          
O        O      0.816900000000     0.963100000000     0.384800000000     0          
O        O      0.840600000000     0.901100000000     0.349100000000     0          
O        O      0.823050000000     0.963100000000     0.311650000000     0          
T        Si     0.807600000000     0.938750000000     0.347650000000     0          
O        O      0.750000000000     0.822450000000     0.094850000000     0          
O        O      0.816900000000     0.786900000000     0.134800000000     0          
O        O      0.840600000000     0.848900000000     0.099100000000     0          
O        O      0.823050000000     0.786900000000     0.061650000000     0          
O        O      0.906900000000     0.750000000000     0.054950000000     0          
O        O      0.842300000000     0.750000000000     0.000000000000     0          
O        O      0.750000000000     0.750000000000     0.173450000000     0          
T        Si     0.807600000000     0.811250000000     0.097650000000     0          
T        Si     0.848900000000     0.750000000000     0.044500000000     0          
T        Si     0.806700000000     0.750000000000     0.159500000000     0          
O        O      0.750000000000     0.677550000000     0.094850000000     0          
O        O      0.683100000000     0.713100000000     0.134800000000     0          
O        O      0.659400000000     0.651100000000     0.099100000000     0          
O        O      0.676950000000     0.713100000000     0.061650000000     0          
O        O      0.593100000000     0.750000000000     0.054950000000     0          
O        O      0.657700000000     0.750000000000     0.000000000000     0          
T        Si     0.692400000000     0.688750000000     0.097650000000     0          
T        Si     0.651100000000     0.750000000000     0.044500000000     0          
T        Si     0.693300000000     0.750000000000     0.159500000000     0          
O        O      0.750000000000     0.677550000000     0.405150000000     0          
O        O      0.816900000000     0.713100000000     0.365200000000     0          
O        O      0.840600000000     0.651100000000     0.400900000000     0          
O        O      0.823050000000     0.713100000000     0.438350000000     0          
O        O      0.906900000000     0.750000000000     0.445050000000     0          
O        O      0.750000000000     0.750000000000     0.326550000000     0          
T        Si     0.807600000000     0.688750000000     0.402350000000     0          
T        Si     0.848900000000     0.750000000000     0.455500000000     0          
T        Si     0.806700000000     0.750000000000     0.340500000000     0          
O        O      0.750000000000     0.822450000000     0.405150000000     0          
O        O      0.683100000000     0.786900000000     0.365200000000     0          
O        O      0.659400000000     0.848900000000     0.400900000000     0          
O        O      0.676950000000     0.786900000000     0.438350000000     0          
O        O      0.593100000000     0.750000000000     0.445050000000     0          
T        Si     0.692400000000     0.811250000000     0.402350000000     0          
T        Si     0.651100000000     0.750000000000     0.455500000000     0          
T        Si     0.693300000000     0.750000000000     0.340500000000     0          
O        O      0.683100000000     0.713100000000     0.365200000000     0          
O        O      0.659400000000     0.651100000000     0.400900000000     0          
O        O      0.676950000000     0.713100000000     0.438350000000     0          
T        Si     0.692400000000     0.688750000000     0.402350000000     0          
O        O      0.816900000000     0.786900000000     0.365200000000     0          
O        O      0.840600000000     0.848900000000     0.400900000000     0          
O        O      0.823050000000     0.786900000000     0.438350000000     0          
T        Si     0.807600000000     0.811250000000     0.402350000000     0          
O        O      0.683100000000     0.786900000000     0.134800000000     0          
O        O      0.659400000000     0.848900000000     0.099100000000     0          
O        O      0.676950000000     0.786900000000     0.061650000000     0          
T        Si     0.692400000000     0.811250000000     0.097650000000     0          
O        O      0.816900000000     0.713100000000     0.134800000000     0          
O        O      0.840600000000     0.651100000000     0.099100000000     0          
O        O      0.823050000000     0.713100000000     0.061650000000     0          
T        Si     0.807600000000     0.688750000000     0.097650000000     0          
O        O      0.500000000000     0.572450000000     0.594850000000     0          
O        O      0.566900000000     0.536900000000     0.634800000000     0          
O        O      0.590600000000     0.598900000000     0.599100000000     0          
O        O      0.573050000000     0.536900000000     0.561650000000     0          
O        O      0.656900000000     0.500000000000     0.554950000000     0          
O        O      0.592300000000     0.500000000000     0.500000000000     0          
O        O      0.500000000000     0.500000000000     0.673450000000     0          
T        Si     0.557600000000     0.561250000000     0.597650000000     0          
T        Si     0.598900000000     0.500000000000     0.544500000000     0          
T        Si     0.556700000000     0.500000000000     0.659500000000     0          
T        Si     0.625000000000     0.625000000000     0.625000000000     0          
O        O      0.500000000000     0.927550000000     0.594850000000     0          
O        O      0.933100000000     0.963100000000     0.634800000000     0          
O        O      0.909400000000     0.901100000000     0.599100000000     0          
O        O      0.926950000000     0.963100000000     0.561650000000     0          
O        O      0.843100000000     0.500000000000     0.554950000000     0          
O        O      0.907700000000     0.500000000000     0.500000000000     0          
T        Si     0.942400000000     0.938750000000     0.597650000000     0          
T        Si     0.901100000000     0.500000000000     0.544500000000     0          
T        Si     0.943300000000     0.500000000000     0.659500000000     0          
T        Si     0.875000000000     0.875000000000     0.625000000000     0          
O        O      0.500000000000     0.927550000000     0.905150000000     0          
O        O      0.566900000000     0.963100000000     0.865200000000     0          
O        O      0.590600000000     0.901100000000     0.900900000000     0          
O        O      0.573050000000     0.963100000000     0.938350000000     0          
O        O      0.656900000000     0.500000000000     0.945050000000     0          
O        O      0.500000000000     0.500000000000     0.826550000000     0          
T        Si     0.557600000000     0.938750000000     0.902350000000     0          
T        Si     0.598900000000     0.500000000000     0.955500000000     0          
T        Si     0.556700000000     0.500000000000     0.840500000000     0          
T        Si     0.625000000000     0.875000000000     0.875000000000     0          
O        O      0.500000000000     0.572450000000     0.905150000000     0          
O        O      0.933100000000     0.536900000000     0.865200000000     0          
O        O      0.909400000000     0.598900000000     0.900900000000     0          
O        O      0.926950000000     0.536900000000     0.938350000000     0          
O        O      0.843100000000     0.500000000000     0.945050000000     0          
T        Si     0.942400000000     0.561250000000     0.902350000000     0          
T        Si     0.901100000000     0.500000000000     0.955500000000     0          
T        Si     0.943300000000     0.500000000000     0.840500000000     0          
T        Si     0.875000000000     0.625000000000     0.875000000000     0          
O        O      0.933100000000     0.963100000000     0.865200000000     0          
O        O      0.909400000000     0.901100000000     0.900900000000     0          
O        O      0.926950000000     0.963100000000     0.938350000000     0          
T        Si     0.942400000000     0.938750000000     0.902350000000     0          
T        Si     0.875000000000     0.875000000000     0.875000000000     0          
O        O      0.566900000000     0.536900000000     0.865200000000     0          
O        O      0.590600000000     0.598900000000     0.900900000000     0          
O        O      0.573050000000     0.536900000000     0.938350000000     0          
T        Si     0.557600000000     0.561250000000     0.902350000000     0          
T        Si     0.625000000000     0.625000000000     0.875000000000     0          
O        O      0.933100000000     0.536900000000     0.634800000000     0          
O        O      0.909400000000     0.598900000000     0.599100000000     0          
O        O      0.926950000000     0.536900000000     0.561650000000     0          
T        Si     0.942400000000     0.561250000000     0.597650000000     0          
T        Si     0.875000000000     0.625000000000     0.625000000000     0          
O        O      0.566900000000     0.963100000000     0.634800000000     0          
O        O      0.590600000000     0.901100000000     0.599100000000     0          
O        O      0.573050000000     0.963100000000     0.561650000000     0          
T        Si     0.557600000000     0.938750000000     0.597650000000     0          
T        Si     0.625000000000     0.875000000000     0.625000000000     0          
O        O      0.500000000000     0.822450000000     0.844850000000     0          
O        O      0.566900000000     0.786900000000     0.884800000000     0          
O        O      0.590600000000     0.848900000000     0.849100000000     0          
O        O      0.573050000000     0.786900000000     0.811650000000     0          
O        O      0.656900000000     0.750000000000     0.804950000000     0          
O        O      0.592300000000     0.750000000000     0.750000000000     0          
O        O      0.500000000000     0.750000000000     0.923450000000     0          
T        Si     0.557600000000     0.811250000000     0.847650000000     0          
T        Si     0.598900000000     0.750000000000     0.794500000000     0          
T        Si     0.556700000000     0.750000000000     0.909500000000     0          
O        O      0.500000000000     0.677550000000     0.844850000000     0          
O        O      0.933100000000     0.713100000000     0.884800000000     0          
O        O      0.909400000000     0.651100000000     0.849100000000     0          
O        O      0.926950000000     0.713100000000     0.811650000000     0          
O        O      0.843100000000     0.750000000000     0.804950000000     0          
O        O      0.907700000000     0.750000000000     0.750000000000     0          
T        Si     0.942400000000     0.688750000000     0.847650000000     0          
T        Si     0.901100000000     0.750000000000     0.794500000000     0          
T        Si     0.943300000000     0.750000000000     0.909500000000     0          
O        O      0.500000000000     0.677550000000     0.655150000000     0          
O        O      0.566900000000     0.713100000000     0.615200000000     0          
O        O      0.590600000000     0.651100000000     0.650900000000     0          
O        O      0.573050000000     0.713100000000     0.688350000000     0          
O        O      0.656900000000     0.750000000000     0.695050000000     0          
O        O      0.500000000000     0.750000000000     0.576550000000     0          
T        Si     0.557600000000     0.688750000000     0.652350000000     0          
T        Si     0.598900000000     0.750000000000     0.705500000000     0          
T        Si     0.556700000000     0.750000000000     0.590500000000     0          
O        O      0.500000000000     0.822450000000     0.655150000000     0          
O        O      0.933100000000     0.786900000000     0.615200000000     0          
O        O      0.909400000000     0.848900000000     0.650900000000     0          
O        O      0.926950000000     0.786900000000     0.688350000000     0          
O        O      0.843100000000     0.750000000000     0.695050000000     0          
T        Si     0.942400000000     0.811250000000     0.652350000000     0          
T        Si     0.901100000000     0.750000000000     0.705500000000     0          
T        Si     0.943300000000     0.750000000000     0.590500000000     0          
O        O      0.933100000000     0.713100000000     0.615200000000     0          
O        O      0.909400000000     0.651100000000     0.650900000000     0          
O        O      0.926950000000     0.713100000000     0.688350000000     0          
T        Si     0.942400000000     0.688750000000     0.652350000000     0          
O        O      0.566900000000     0.786900000000     0.615200000000     0          
O        O      0.590600000000     0.848900000000     0.650900000000     0          
O        O      0.573050000000     0.786900000000     0.688350000000     0          
T        Si     0.557600000000     0.811250000000     0.652350000000     0          
O        O      0.933100000000     0.786900000000     0.884800000000     0          
O        O      0.909400000000     0.848900000000     0.849100000000     0          
O        O      0.926950000000     0.786900000000     0.811650000000     0          
T        Si     0.942400000000     0.811250000000     0.847650000000     0          
O        O      0.566900000000     0.713100000000     0.884800000000     0          
O        O      0.590600000000     0.651100000000     0.849100000000     0          
O        O      0.573050000000     0.713100000000     0.811650000000     0          
T        Si     0.557600000000     0.688750000000     0.847650000000     0          
O        O      0.750000000000     0.572450000000     0.844850000000     0          
O        O      0.816900000000     0.536900000000     0.884800000000     0          
O        O      0.840600000000     0.598900000000     0.849100000000     0          
O        O      0.823050000000     0.536900000000     0.811650000000     0          
O        O      0.906900000000     0.500000000000     0.804950000000     0          
O        O      0.842300000000     0.500000000000     0.750000000000     0          
O        O      0.750000000000     0.500000000000     0.923450000000     0          
T        Si     0.807600000000     0.561250000000     0.847650000000     0          
T        Si     0.848900000000     0.500000000000     0.794500000000     0          
T        Si     0.806700000000     0.500000000000     0.909500000000     0          
O        O      0.750000000000     0.927550000000     0.844850000000     0          
O        O      0.683100000000     0.963100000000     0.884800000000     0          
O        O      0.659400000000     0.901100000000     0.849100000000     0          
O        O      0.676950000000     0.963100000000     0.811650000000     0          
O        O      0.593100000000     0.500000000000     0.804950000000     0          
O        O      0.657700000000     0.500000000000     0.750000000000     0          
T        Si     0.692400000000     0.938750000000     0.847650000000     0          
T        Si     0.651100000000     0.500000000000     0.794500000000     0          
T        Si     0.693300000000     0.500000000000     0.909500000000     0          
O        O      0.750000000000     0.927550000000     0.655150000000     0          
O        O      0.816900000000     0.963100000000     0.615200000000     0          
O        O      0.840600000000     0.901100000000     0.650900000000     0          
O        O      0.823050000000     0.963100000000     0.688350000000     0          
O        O      0.906900000000     0.500000000000     0.695050000000     0          
O        O      0.750000000000     0.500000000000     0.576550000000     0          
T        Si     0.807600000000     0.938750000000     0.652350000000     0          
T        Si     0.848900000000     0.500000000000     0.705500000000     0          
T        Si     0.806700000000     0.500000000000     0.590500000000     0          
O        O      0.750000000000     0.572450000000     0.655150000000     0          
O        O      0.683100000000     0.536900000000     0.615200000000     0          
O        O      0.659400000000     0.598900000000     0.650900000000     0          
O        O      0.676950000000     0.536900000000     0.688350000000     0          
O        O      0.593100000000     0.500000000000     0.695050000000     0          
T        Si     0.692400000000     0.561250000000     0.652350000000     0          
T        Si     0.651100000000     0.500000000000     0.705500000000     0          
T        Si     0.693300000000     0.500000000000     0.590500000000     0          
O        O      0.683100000000     0.963100000000     0.615200000000     0          
O        O      0.659400000000     0.901100000000     0.650900000000     0          
O        O      0.676950000000     0.963100000000     0.688350000000     0          
T        Si     0.692400000000     0.938750000000     0.652350000000     0          
O        O      0.816900000000     0.536900000000     0.615200000000     0          
O        O      0.840600000000     0.598900000000     0.650900000000     0          
O        O      0.823050000000     0.536900000000     0.688350000000     0          
T        Si     0.807600000000     0.561250000000     0.652350000000     0          
O        O      0.683100000000     0.536900000000     0.884800000000     0          
O        O      0.659400000000     0.598900000000     0.849100000000     0          
O        O      0.676950000000     0.536900000000     0.811650000000     0          
T        Si     0.692400000000     0.561250000000     0.847650000000     0          
O        O      0.816900000000     0.963100000000     0.884800000000     0          
O        O      0.840600000000     0.901100000000     0.849100000000     0          
O        O      0.823050000000     0.963100000000     0.811650000000     0          
T        Si     0.807600000000     0.938750000000     0.847650000000     0          
O        O      0.750000000000     0.822450000000     0.594850000000     0          
O        O      0.816900000000     0.786900000000     0.634800000000     0          
O        O      0.840600000000     0.848900000000     0.599100000000     0          
O        O      0.823050000000     0.786900000000     0.561650000000     0          
O        O      0.906900000000     0.750000000000     0.554950000000     0          
O        O      0.842300000000     0.750000000000     0.500000000000     0          
O        O      0.750000000000     0.750000000000     0.673450000000     0          
T        Si     0.807600000000     0.811250000000     0.597650000000     0          
T        Si     0.848900000000     0.750000000000     0.544500000000     0          
T        Si     0.806700000000     0.750000000000     0.659500000000     0          
O        O      0.750000000000     0.677550000000     0.594850000000     0          
O        O      0.683100000000     0.713100000000     0.634800000000     0          
O        O      0.659400000000     0.651100000000     0.599100000000     0          
O        O      0.676950000000     0.713100000000     0.561650000000     0          
O        O      0.593100000000     0.750000000000     0.554950000000     0          
O        O      0.657700000000     0.750000000000     0.500000000000     0          
T        Si     0.692400000000     0.688750000000     0.597650000000     0          
T        Si     0.651100000000     0.750000000000     0.544500000000     0          
T        Si     0.693300000000     0.750000000000     0.659500000000     0          
O        O      0.750000000000     0.677550000000     0.905150000000     0          
O        O      0.816900000000     0.713100000000     0.865200000000     0          
O        O      0.840600000000     0.651100000000     0.900900000000     0          
O        O      0.823050000000     0.713100000000     0.938350000000     0          
O        O      0.906900000000     0.750000000000     0.945050000000     0          
O        O      0.750000000000     0.750000000000     0.826550000000     0          
T        Si     0.807600000000     0.688750000000     0.902350000000     0          
T        Si     0.848900000000     0.750000000000     0.955500000000     0          
T        Si     0.806700000000     0.750000000000     0.840500000000     0          
O        O      0.750000000000     0.822450000000     0.905150000000     0          
O        O      0.683100000000     0.786900000000     0.865200000000     0          
O        O      0.659400000000     0.848900000000     0.900900000000     0          
O        O      0.676950000000     0.786900000000     0.938350000000     0          
O        O      0.593100000000     0.750000000000     0.945050000000     0          
T        Si     0.692400000000     0.811250000000     0.902350000000     0          
T        Si     0.651100000000     0.750000000000     0.955500000000     0          
T        Si     0.693300000000     0.750000000000     0.840500000000     0          
O        O      0.683100000000     0.713100000000     0.865200000000     0          
O        O      0.659400000000     0.651100000000     0.900900000000     0          
O        O      0.676950000000     0.713100000000     0.938350000000     0          
T        Si     0.692400000000     0.688750000000     0.902350000000     0          
O        O      0.816900000000     0.786900000000     0.865200000000     0          
O        O      0.840600000000     0.848900000000     0.900900000000     0          
O        O      0.823050000000     0.786900000000     0.938350000000     0          
T        Si     0.807600000000     0.811250000000     0.902350000000     0          
O        O      0.683100000000     0.786900000000     0.634800000000     0          
O        O      0.659400000000     0.848900000000     0.599100000000     0          
O        O      0.676950000000     0.786900000000     0.561650000000     0          
T        Si     0.692400000000     0.811250000000     0.597650000000     0          
O        O      0.816900000000     0.713100000000     0.634800000000     0          
O        O      0.840600000000     0.651100000000     0.599100000000     0          
O        O      0.823050000000     0.713100000000     0.561650000000     0          
T        Si     0.807600000000     0.688750000000     0.597650000000     0          


