data_zeolite

_audit_creation_method RASPA-1.0
_audit_creation_date 2021-1-11
_audit_author_name ''

_cell_length_a    26.28
_cell_length_b    29.8
_cell_length_c    32.636
_cell_angle_alpha 90
_cell_angle_beta  90
_cell_angle_gamma 90
_cell_volume      25558.7

_symmetry_cell_setting          orthorhombic
_symmetry_space_group_name_Hall 'P 1'
_symmetry_space_group_name_H-M  'P 1'
_symmetry_Int_Tables_number     1

_symmetry_equiv_pos_as_xyz 'x,y,z'

loop_
_atom_site_label
_atom_site_type_symbol
_atom_site_fract_x
_atom_site_fract_y
_atom_site_fract_z
_atom_site_charge
O        O      0.000000000000     0.065300000000     0.000000000000     0          
O        O      0.050000000000     0.000000000000     0.036375000000     0          
O        O      0.050000000000     0.080875000000     0.068200000000     0          
O        O      0.100000000000     0.125000000000     0.125000000000     0          
T        Si     0.050000000000     0.052775000000     0.026050000000     0          
T        Si     0.050000000000     0.125000000000     0.096625000000     0          
O        O      0.100000000000     0.184700000000     0.000000000000     0          
O        O      0.050000000000     0.169125000000     0.068200000000     0          
O        O      0.000000000000     0.125000000000     0.125000000000     0          
T        Si     0.050000000000     0.197225000000     0.026050000000     0          
O        O      0.150000000000     0.000000000000     0.213625000000     0          
O        O      0.150000000000     0.169125000000     0.181800000000     0          
T        Si     0.150000000000     0.197225000000     0.223950000000     0          
T        Si     0.150000000000     0.125000000000     0.153375000000     0          
O        O      0.150000000000     0.080875000000     0.181800000000     0          
T        Si     0.150000000000     0.052775000000     0.223950000000     0          
O        O      0.000000000000     0.184700000000     0.000000000000     0          
O        O      0.100000000000     0.065300000000     0.000000000000     0          
O        O      0.000000000000     0.065300000000     0.250000000000     0          
O        O      0.050000000000     0.000000000000     0.286375000000     0          
O        O      0.050000000000     0.080875000000     0.318200000000     0          
O        O      0.100000000000     0.125000000000     0.375000000000     0          
T        Si     0.050000000000     0.052775000000     0.276050000000     0          
T        Si     0.050000000000     0.125000000000     0.346625000000     0          
O        O      0.100000000000     0.184700000000     0.250000000000     0          
O        O      0.050000000000     0.169125000000     0.318200000000     0          
O        O      0.000000000000     0.125000000000     0.375000000000     0          
T        Si     0.050000000000     0.197225000000     0.276050000000     0          
O        O      0.150000000000     0.000000000000     0.463625000000     0          
O        O      0.150000000000     0.169125000000     0.431800000000     0          
T        Si     0.150000000000     0.197225000000     0.473950000000     0          
T        Si     0.150000000000     0.125000000000     0.403375000000     0          
O        O      0.150000000000     0.080875000000     0.431800000000     0          
T        Si     0.150000000000     0.052775000000     0.473950000000     0          
O        O      0.000000000000     0.184700000000     0.250000000000     0          
O        O      0.100000000000     0.065300000000     0.250000000000     0          
O        O      0.000000000000     0.065300000000     0.500000000000     0          
O        O      0.050000000000     0.000000000000     0.536375000000     0          
O        O      0.050000000000     0.080875000000     0.568200000000     0          
O        O      0.100000000000     0.125000000000     0.625000000000     0          
T        Si     0.050000000000     0.052775000000     0.526050000000     0          
T        Si     0.050000000000     0.125000000000     0.596625000000     0          
O        O      0.100000000000     0.184700000000     0.500000000000     0          
O        O      0.050000000000     0.169125000000     0.568200000000     0          
O        O      0.000000000000     0.125000000000     0.625000000000     0          
T        Si     0.050000000000     0.197225000000     0.526050000000     0          
O        O      0.150000000000     0.000000000000     0.713625000000     0          
O        O      0.150000000000     0.169125000000     0.681800000000     0          
T        Si     0.150000000000     0.197225000000     0.723950000000     0          
T        Si     0.150000000000     0.125000000000     0.653375000000     0          
O        O      0.150000000000     0.080875000000     0.681800000000     0          
T        Si     0.150000000000     0.052775000000     0.723950000000     0          
O        O      0.000000000000     0.184700000000     0.500000000000     0          
O        O      0.100000000000     0.065300000000     0.500000000000     0          
O        O      0.000000000000     0.065300000000     0.750000000000     0          
O        O      0.050000000000     0.000000000000     0.786375000000     0          
O        O      0.050000000000     0.080875000000     0.818200000000     0          
O        O      0.100000000000     0.125000000000     0.875000000000     0          
T        Si     0.050000000000     0.052775000000     0.776050000000     0          
T        Si     0.050000000000     0.125000000000     0.846625000000     0          
O        O      0.100000000000     0.184700000000     0.750000000000     0          
O        O      0.050000000000     0.169125000000     0.818200000000     0          
O        O      0.000000000000     0.125000000000     0.875000000000     0          
T        Si     0.050000000000     0.197225000000     0.776050000000     0          
O        O      0.150000000000     0.000000000000     0.963625000000     0          
O        O      0.150000000000     0.169125000000     0.931800000000     0          
T        Si     0.150000000000     0.197225000000     0.973950000000     0          
T        Si     0.150000000000     0.125000000000     0.903375000000     0          
O        O      0.150000000000     0.080875000000     0.931800000000     0          
T        Si     0.150000000000     0.052775000000     0.973950000000     0          
O        O      0.000000000000     0.184700000000     0.750000000000     0          
O        O      0.100000000000     0.065300000000     0.750000000000     0          
O        O      0.000000000000     0.315300000000     0.000000000000     0          
O        O      0.050000000000     0.250000000000     0.036375000000     0          
O        O      0.050000000000     0.330875000000     0.068200000000     0          
O        O      0.100000000000     0.375000000000     0.125000000000     0          
T        Si     0.050000000000     0.302775000000     0.026050000000     0          
T        Si     0.050000000000     0.375000000000     0.096625000000     0          
O        O      0.100000000000     0.434700000000     0.000000000000     0          
O        O      0.050000000000     0.419125000000     0.068200000000     0          
O        O      0.000000000000     0.375000000000     0.125000000000     0          
T        Si     0.050000000000     0.447225000000     0.026050000000     0          
O        O      0.150000000000     0.250000000000     0.213625000000     0          
O        O      0.150000000000     0.419125000000     0.181800000000     0          
T        Si     0.150000000000     0.447225000000     0.223950000000     0          
T        Si     0.150000000000     0.375000000000     0.153375000000     0          
O        O      0.150000000000     0.330875000000     0.181800000000     0          
T        Si     0.150000000000     0.302775000000     0.223950000000     0          
O        O      0.000000000000     0.434700000000     0.000000000000     0          
O        O      0.100000000000     0.315300000000     0.000000000000     0          
O        O      0.000000000000     0.315300000000     0.250000000000     0          
O        O      0.050000000000     0.250000000000     0.286375000000     0          
O        O      0.050000000000     0.330875000000     0.318200000000     0          
O        O      0.100000000000     0.375000000000     0.375000000000     0          
T        Si     0.050000000000     0.302775000000     0.276050000000     0          
T        Si     0.050000000000     0.375000000000     0.346625000000     0          
O        O      0.100000000000     0.434700000000     0.250000000000     0          
O        O      0.050000000000     0.419125000000     0.318200000000     0          
O        O      0.000000000000     0.375000000000     0.375000000000     0          
T        Si     0.050000000000     0.447225000000     0.276050000000     0          
O        O      0.150000000000     0.250000000000     0.463625000000     0          
O        O      0.150000000000     0.419125000000     0.431800000000     0          
T        Si     0.150000000000     0.447225000000     0.473950000000     0          
T        Si     0.150000000000     0.375000000000     0.403375000000     0          
O        O      0.150000000000     0.330875000000     0.431800000000     0          
T        Si     0.150000000000     0.302775000000     0.473950000000     0          
O        O      0.000000000000     0.434700000000     0.250000000000     0          
O        O      0.100000000000     0.315300000000     0.250000000000     0          
O        O      0.000000000000     0.315300000000     0.500000000000     0          
O        O      0.050000000000     0.250000000000     0.536375000000     0          
O        O      0.050000000000     0.330875000000     0.568200000000     0          
O        O      0.100000000000     0.375000000000     0.625000000000     0          
T        Si     0.050000000000     0.302775000000     0.526050000000     0          
T        Si     0.050000000000     0.375000000000     0.596625000000     0          
O        O      0.100000000000     0.434700000000     0.500000000000     0          
O        O      0.050000000000     0.419125000000     0.568200000000     0          
O        O      0.000000000000     0.375000000000     0.625000000000     0          
T        Si     0.050000000000     0.447225000000     0.526050000000     0          
O        O      0.150000000000     0.250000000000     0.713625000000     0          
O        O      0.150000000000     0.419125000000     0.681800000000     0          
T        Si     0.150000000000     0.447225000000     0.723950000000     0          
T        Si     0.150000000000     0.375000000000     0.653375000000     0          
O        O      0.150000000000     0.330875000000     0.681800000000     0          
T        Si     0.150000000000     0.302775000000     0.723950000000     0          
O        O      0.000000000000     0.434700000000     0.500000000000     0          
O        O      0.100000000000     0.315300000000     0.500000000000     0          
O        O      0.000000000000     0.315300000000     0.750000000000     0          
O        O      0.050000000000     0.250000000000     0.786375000000     0          
O        O      0.050000000000     0.330875000000     0.818200000000     0          
O        O      0.100000000000     0.375000000000     0.875000000000     0          
T        Si     0.050000000000     0.302775000000     0.776050000000     0          
T        Si     0.050000000000     0.375000000000     0.846625000000     0          
O        O      0.100000000000     0.434700000000     0.750000000000     0          
O        O      0.050000000000     0.419125000000     0.818200000000     0          
O        O      0.000000000000     0.375000000000     0.875000000000     0          
T        Si     0.050000000000     0.447225000000     0.776050000000     0          
O        O      0.150000000000     0.250000000000     0.963625000000     0          
O        O      0.150000000000     0.419125000000     0.931800000000     0          
T        Si     0.150000000000     0.447225000000     0.973950000000     0          
T        Si     0.150000000000     0.375000000000     0.903375000000     0          
O        O      0.150000000000     0.330875000000     0.931800000000     0          
T        Si     0.150000000000     0.302775000000     0.973950000000     0          
O        O      0.000000000000     0.434700000000     0.750000000000     0          
O        O      0.100000000000     0.315300000000     0.750000000000     0          
O        O      0.000000000000     0.565300000000     0.000000000000     0          
O        O      0.050000000000     0.500000000000     0.036375000000     0          
O        O      0.050000000000     0.580875000000     0.068200000000     0          
O        O      0.100000000000     0.625000000000     0.125000000000     0          
T        Si     0.050000000000     0.552775000000     0.026050000000     0          
T        Si     0.050000000000     0.625000000000     0.096625000000     0          
O        O      0.100000000000     0.684700000000     0.000000000000     0          
O        O      0.050000000000     0.669125000000     0.068200000000     0          
O        O      0.000000000000     0.625000000000     0.125000000000     0          
T        Si     0.050000000000     0.697225000000     0.026050000000     0          
O        O      0.150000000000     0.500000000000     0.213625000000     0          
O        O      0.150000000000     0.669125000000     0.181800000000     0          
T        Si     0.150000000000     0.697225000000     0.223950000000     0          
T        Si     0.150000000000     0.625000000000     0.153375000000     0          
O        O      0.150000000000     0.580875000000     0.181800000000     0          
T        Si     0.150000000000     0.552775000000     0.223950000000     0          
O        O      0.000000000000     0.684700000000     0.000000000000     0          
O        O      0.100000000000     0.565300000000     0.000000000000     0          
O        O      0.000000000000     0.565300000000     0.250000000000     0          
O        O      0.050000000000     0.500000000000     0.286375000000     0          
O        O      0.050000000000     0.580875000000     0.318200000000     0          
O        O      0.100000000000     0.625000000000     0.375000000000     0          
T        Si     0.050000000000     0.552775000000     0.276050000000     0          
T        Si     0.050000000000     0.625000000000     0.346625000000     0          
O        O      0.100000000000     0.684700000000     0.250000000000     0          
O        O      0.050000000000     0.669125000000     0.318200000000     0          
O        O      0.000000000000     0.625000000000     0.375000000000     0          
T        Si     0.050000000000     0.697225000000     0.276050000000     0          
O        O      0.150000000000     0.500000000000     0.463625000000     0          
O        O      0.150000000000     0.669125000000     0.431800000000     0          
T        Si     0.150000000000     0.697225000000     0.473950000000     0          
T        Si     0.150000000000     0.625000000000     0.403375000000     0          
O        O      0.150000000000     0.580875000000     0.431800000000     0          
T        Si     0.150000000000     0.552775000000     0.473950000000     0          
O        O      0.000000000000     0.684700000000     0.250000000000     0          
O        O      0.100000000000     0.565300000000     0.250000000000     0          
O        O      0.000000000000     0.565300000000     0.500000000000     0          
O        O      0.050000000000     0.500000000000     0.536375000000     0          
O        O      0.050000000000     0.580875000000     0.568200000000     0          
O        O      0.100000000000     0.625000000000     0.625000000000     0          
T        Si     0.050000000000     0.552775000000     0.526050000000     0          
T        Si     0.050000000000     0.625000000000     0.596625000000     0          
O        O      0.100000000000     0.684700000000     0.500000000000     0          
O        O      0.050000000000     0.669125000000     0.568200000000     0          
O        O      0.000000000000     0.625000000000     0.625000000000     0          
T        Si     0.050000000000     0.697225000000     0.526050000000     0          
O        O      0.150000000000     0.500000000000     0.713625000000     0          
O        O      0.150000000000     0.669125000000     0.681800000000     0          
T        Si     0.150000000000     0.697225000000     0.723950000000     0          
T        Si     0.150000000000     0.625000000000     0.653375000000     0          
O        O      0.150000000000     0.580875000000     0.681800000000     0          
T        Si     0.150000000000     0.552775000000     0.723950000000     0          
O        O      0.000000000000     0.684700000000     0.500000000000     0          
O        O      0.100000000000     0.565300000000     0.500000000000     0          
O        O      0.000000000000     0.565300000000     0.750000000000     0          
O        O      0.050000000000     0.500000000000     0.786375000000     0          
O        O      0.050000000000     0.580875000000     0.818200000000     0          
O        O      0.100000000000     0.625000000000     0.875000000000     0          
T        Si     0.050000000000     0.552775000000     0.776050000000     0          
T        Si     0.050000000000     0.625000000000     0.846625000000     0          
O        O      0.100000000000     0.684700000000     0.750000000000     0          
O        O      0.050000000000     0.669125000000     0.818200000000     0          
O        O      0.000000000000     0.625000000000     0.875000000000     0          
T        Si     0.050000000000     0.697225000000     0.776050000000     0          
O        O      0.150000000000     0.500000000000     0.963625000000     0          
O        O      0.150000000000     0.669125000000     0.931800000000     0          
T        Si     0.150000000000     0.697225000000     0.973950000000     0          
T        Si     0.150000000000     0.625000000000     0.903375000000     0          
O        O      0.150000000000     0.580875000000     0.931800000000     0          
T        Si     0.150000000000     0.552775000000     0.973950000000     0          
O        O      0.000000000000     0.684700000000     0.750000000000     0          
O        O      0.100000000000     0.565300000000     0.750000000000     0          
O        O      0.000000000000     0.815300000000     0.000000000000     0          
O        O      0.050000000000     0.750000000000     0.036375000000     0          
O        O      0.050000000000     0.830875000000     0.068200000000     0          
O        O      0.100000000000     0.875000000000     0.125000000000     0          
T        Si     0.050000000000     0.802775000000     0.026050000000     0          
T        Si     0.050000000000     0.875000000000     0.096625000000     0          
O        O      0.100000000000     0.934700000000     0.000000000000     0          
O        O      0.050000000000     0.919125000000     0.068200000000     0          
O        O      0.000000000000     0.875000000000     0.125000000000     0          
T        Si     0.050000000000     0.947225000000     0.026050000000     0          
O        O      0.150000000000     0.750000000000     0.213625000000     0          
O        O      0.150000000000     0.919125000000     0.181800000000     0          
T        Si     0.150000000000     0.947225000000     0.223950000000     0          
T        Si     0.150000000000     0.875000000000     0.153375000000     0          
O        O      0.150000000000     0.830875000000     0.181800000000     0          
T        Si     0.150000000000     0.802775000000     0.223950000000     0          
O        O      0.000000000000     0.934700000000     0.000000000000     0          
O        O      0.100000000000     0.815300000000     0.000000000000     0          
O        O      0.000000000000     0.815300000000     0.250000000000     0          
O        O      0.050000000000     0.750000000000     0.286375000000     0          
O        O      0.050000000000     0.830875000000     0.318200000000     0          
O        O      0.100000000000     0.875000000000     0.375000000000     0          
T        Si     0.050000000000     0.802775000000     0.276050000000     0          
T        Si     0.050000000000     0.875000000000     0.346625000000     0          
O        O      0.100000000000     0.934700000000     0.250000000000     0          
O        O      0.050000000000     0.919125000000     0.318200000000     0          
O        O      0.000000000000     0.875000000000     0.375000000000     0          
T        Si     0.050000000000     0.947225000000     0.276050000000     0          
O        O      0.150000000000     0.750000000000     0.463625000000     0          
O        O      0.150000000000     0.919125000000     0.431800000000     0          
T        Si     0.150000000000     0.947225000000     0.473950000000     0          
T        Si     0.150000000000     0.875000000000     0.403375000000     0          
O        O      0.150000000000     0.830875000000     0.431800000000     0          
T        Si     0.150000000000     0.802775000000     0.473950000000     0          
O        O      0.000000000000     0.934700000000     0.250000000000     0          
O        O      0.100000000000     0.815300000000     0.250000000000     0          
O        O      0.000000000000     0.815300000000     0.500000000000     0          
O        O      0.050000000000     0.750000000000     0.536375000000     0          
O        O      0.050000000000     0.830875000000     0.568200000000     0          
O        O      0.100000000000     0.875000000000     0.625000000000     0          
T        Si     0.050000000000     0.802775000000     0.526050000000     0          
T        Si     0.050000000000     0.875000000000     0.596625000000     0          
O        O      0.100000000000     0.934700000000     0.500000000000     0          
O        O      0.050000000000     0.919125000000     0.568200000000     0          
O        O      0.000000000000     0.875000000000     0.625000000000     0          
T        Si     0.050000000000     0.947225000000     0.526050000000     0          
O        O      0.150000000000     0.750000000000     0.713625000000     0          
O        O      0.150000000000     0.919125000000     0.681800000000     0          
T        Si     0.150000000000     0.947225000000     0.723950000000     0          
T        Si     0.150000000000     0.875000000000     0.653375000000     0          
O        O      0.150000000000     0.830875000000     0.681800000000     0          
T        Si     0.150000000000     0.802775000000     0.723950000000     0          
O        O      0.000000000000     0.934700000000     0.500000000000     0          
O        O      0.100000000000     0.815300000000     0.500000000000     0          
O        O      0.000000000000     0.815300000000     0.750000000000     0          
O        O      0.050000000000     0.750000000000     0.786375000000     0          
O        O      0.050000000000     0.830875000000     0.818200000000     0          
O        O      0.100000000000     0.875000000000     0.875000000000     0          
T        Si     0.050000000000     0.802775000000     0.776050000000     0          
T        Si     0.050000000000     0.875000000000     0.846625000000     0          
O        O      0.100000000000     0.934700000000     0.750000000000     0          
O        O      0.050000000000     0.919125000000     0.818200000000     0          
O        O      0.000000000000     0.875000000000     0.875000000000     0          
T        Si     0.050000000000     0.947225000000     0.776050000000     0          
O        O      0.150000000000     0.750000000000     0.963625000000     0          
O        O      0.150000000000     0.919125000000     0.931800000000     0          
T        Si     0.150000000000     0.947225000000     0.973950000000     0          
T        Si     0.150000000000     0.875000000000     0.903375000000     0          
O        O      0.150000000000     0.830875000000     0.931800000000     0          
T        Si     0.150000000000     0.802775000000     0.973950000000     0          
O        O      0.000000000000     0.934700000000     0.750000000000     0          
O        O      0.100000000000     0.815300000000     0.750000000000     0          
O        O      0.200000000000     0.065300000000     0.000000000000     0          
O        O      0.250000000000     0.000000000000     0.036375000000     0          
O        O      0.250000000000     0.080875000000     0.068200000000     0          
O        O      0.300000000000     0.125000000000     0.125000000000     0          
T        Si     0.250000000000     0.052775000000     0.026050000000     0          
T        Si     0.250000000000     0.125000000000     0.096625000000     0          
O        O      0.300000000000     0.184700000000     0.000000000000     0          
O        O      0.250000000000     0.169125000000     0.068200000000     0          
O        O      0.200000000000     0.125000000000     0.125000000000     0          
T        Si     0.250000000000     0.197225000000     0.026050000000     0          
O        O      0.350000000000     0.000000000000     0.213625000000     0          
O        O      0.350000000000     0.169125000000     0.181800000000     0          
T        Si     0.350000000000     0.197225000000     0.223950000000     0          
T        Si     0.350000000000     0.125000000000     0.153375000000     0          
O        O      0.350000000000     0.080875000000     0.181800000000     0          
T        Si     0.350000000000     0.052775000000     0.223950000000     0          
O        O      0.200000000000     0.184700000000     0.000000000000     0          
O        O      0.300000000000     0.065300000000     0.000000000000     0          
O        O      0.200000000000     0.065300000000     0.250000000000     0          
O        O      0.250000000000     0.000000000000     0.286375000000     0          
O        O      0.250000000000     0.080875000000     0.318200000000     0          
O        O      0.300000000000     0.125000000000     0.375000000000     0          
T        Si     0.250000000000     0.052775000000     0.276050000000     0          
T        Si     0.250000000000     0.125000000000     0.346625000000     0          
O        O      0.300000000000     0.184700000000     0.250000000000     0          
O        O      0.250000000000     0.169125000000     0.318200000000     0          
O        O      0.200000000000     0.125000000000     0.375000000000     0          
T        Si     0.250000000000     0.197225000000     0.276050000000     0          
O        O      0.350000000000     0.000000000000     0.463625000000     0          
O        O      0.350000000000     0.169125000000     0.431800000000     0          
T        Si     0.350000000000     0.197225000000     0.473950000000     0          
T        Si     0.350000000000     0.125000000000     0.403375000000     0          
O        O      0.350000000000     0.080875000000     0.431800000000     0          
T        Si     0.350000000000     0.052775000000     0.473950000000     0          
O        O      0.200000000000     0.184700000000     0.250000000000     0          
O        O      0.300000000000     0.065300000000     0.250000000000     0          
O        O      0.200000000000     0.065300000000     0.500000000000     0          
O        O      0.250000000000     0.000000000000     0.536375000000     0          
O        O      0.250000000000     0.080875000000     0.568200000000     0          
O        O      0.300000000000     0.125000000000     0.625000000000     0          
T        Si     0.250000000000     0.052775000000     0.526050000000     0          
T        Si     0.250000000000     0.125000000000     0.596625000000     0          
O        O      0.300000000000     0.184700000000     0.500000000000     0          
O        O      0.250000000000     0.169125000000     0.568200000000     0          
O        O      0.200000000000     0.125000000000     0.625000000000     0          
T        Si     0.250000000000     0.197225000000     0.526050000000     0          
O        O      0.350000000000     0.000000000000     0.713625000000     0          
O        O      0.350000000000     0.169125000000     0.681800000000     0          
T        Si     0.350000000000     0.197225000000     0.723950000000     0          
T        Si     0.350000000000     0.125000000000     0.653375000000     0          
O        O      0.350000000000     0.080875000000     0.681800000000     0          
T        Si     0.350000000000     0.052775000000     0.723950000000     0          
O        O      0.200000000000     0.184700000000     0.500000000000     0          
O        O      0.300000000000     0.065300000000     0.500000000000     0          
O        O      0.200000000000     0.065300000000     0.750000000000     0          
O        O      0.250000000000     0.000000000000     0.786375000000     0          
O        O      0.250000000000     0.080875000000     0.818200000000     0          
O        O      0.300000000000     0.125000000000     0.875000000000     0          
T        Si     0.250000000000     0.052775000000     0.776050000000     0          
T        Si     0.250000000000     0.125000000000     0.846625000000     0          
O        O      0.300000000000     0.184700000000     0.750000000000     0          
O        O      0.250000000000     0.169125000000     0.818200000000     0          
O        O      0.200000000000     0.125000000000     0.875000000000     0          
T        Si     0.250000000000     0.197225000000     0.776050000000     0          
O        O      0.350000000000     0.000000000000     0.963625000000     0          
O        O      0.350000000000     0.169125000000     0.931800000000     0          
T        Si     0.350000000000     0.197225000000     0.973950000000     0          
T        Si     0.350000000000     0.125000000000     0.903375000000     0          
O        O      0.350000000000     0.080875000000     0.931800000000     0          
T        Si     0.350000000000     0.052775000000     0.973950000000     0          
O        O      0.200000000000     0.184700000000     0.750000000000     0          
O        O      0.300000000000     0.065300000000     0.750000000000     0          
O        O      0.200000000000     0.315300000000     0.000000000000     0          
O        O      0.250000000000     0.250000000000     0.036375000000     0          
O        O      0.250000000000     0.330875000000     0.068200000000     0          
O        O      0.300000000000     0.375000000000     0.125000000000     0          
T        Si     0.250000000000     0.302775000000     0.026050000000     0          
T        Si     0.250000000000     0.375000000000     0.096625000000     0          
O        O      0.300000000000     0.434700000000     0.000000000000     0          
O        O      0.250000000000     0.419125000000     0.068200000000     0          
O        O      0.200000000000     0.375000000000     0.125000000000     0          
T        Si     0.250000000000     0.447225000000     0.026050000000     0          
O        O      0.350000000000     0.250000000000     0.213625000000     0          
O        O      0.350000000000     0.419125000000     0.181800000000     0          
T        Si     0.350000000000     0.447225000000     0.223950000000     0          
T        Si     0.350000000000     0.375000000000     0.153375000000     0          
O        O      0.350000000000     0.330875000000     0.181800000000     0          
T        Si     0.350000000000     0.302775000000     0.223950000000     0          
O        O      0.200000000000     0.434700000000     0.000000000000     0          
O        O      0.300000000000     0.315300000000     0.000000000000     0          
O        O      0.200000000000     0.315300000000     0.250000000000     0          
O        O      0.250000000000     0.250000000000     0.286375000000     0          
O        O      0.250000000000     0.330875000000     0.318200000000     0          
O        O      0.300000000000     0.375000000000     0.375000000000     0          
T        Si     0.250000000000     0.302775000000     0.276050000000     0          
T        Si     0.250000000000     0.375000000000     0.346625000000     0          
O        O      0.300000000000     0.434700000000     0.250000000000     0          
O        O      0.250000000000     0.419125000000     0.318200000000     0          
O        O      0.200000000000     0.375000000000     0.375000000000     0          
T        Si     0.250000000000     0.447225000000     0.276050000000     0          
O        O      0.350000000000     0.250000000000     0.463625000000     0          
O        O      0.350000000000     0.419125000000     0.431800000000     0          
T        Si     0.350000000000     0.447225000000     0.473950000000     0          
T        Si     0.350000000000     0.375000000000     0.403375000000     0          
O        O      0.350000000000     0.330875000000     0.431800000000     0          
T        Si     0.350000000000     0.302775000000     0.473950000000     0          
O        O      0.200000000000     0.434700000000     0.250000000000     0          
O        O      0.300000000000     0.315300000000     0.250000000000     0          
O        O      0.200000000000     0.315300000000     0.500000000000     0          
O        O      0.250000000000     0.250000000000     0.536375000000     0          
O        O      0.250000000000     0.330875000000     0.568200000000     0          
O        O      0.300000000000     0.375000000000     0.625000000000     0          
T        Si     0.250000000000     0.302775000000     0.526050000000     0          
T        Si     0.250000000000     0.375000000000     0.596625000000     0          
O        O      0.300000000000     0.434700000000     0.500000000000     0          
O        O      0.250000000000     0.419125000000     0.568200000000     0          
O        O      0.200000000000     0.375000000000     0.625000000000     0          
T        Si     0.250000000000     0.447225000000     0.526050000000     0          
O        O      0.350000000000     0.250000000000     0.713625000000     0          
O        O      0.350000000000     0.419125000000     0.681800000000     0          
T        Si     0.350000000000     0.447225000000     0.723950000000     0          
T        Si     0.350000000000     0.375000000000     0.653375000000     0          
O        O      0.350000000000     0.330875000000     0.681800000000     0          
T        Si     0.350000000000     0.302775000000     0.723950000000     0          
O        O      0.200000000000     0.434700000000     0.500000000000     0          
O        O      0.300000000000     0.315300000000     0.500000000000     0          
O        O      0.200000000000     0.315300000000     0.750000000000     0          
O        O      0.250000000000     0.250000000000     0.786375000000     0          
O        O      0.250000000000     0.330875000000     0.818200000000     0          
O        O      0.300000000000     0.375000000000     0.875000000000     0          
T        Si     0.250000000000     0.302775000000     0.776050000000     0          
T        Si     0.250000000000     0.375000000000     0.846625000000     0          
O        O      0.300000000000     0.434700000000     0.750000000000     0          
O        O      0.250000000000     0.419125000000     0.818200000000     0          
O        O      0.200000000000     0.375000000000     0.875000000000     0          
T        Si     0.250000000000     0.447225000000     0.776050000000     0          
O        O      0.350000000000     0.250000000000     0.963625000000     0          
O        O      0.350000000000     0.419125000000     0.931800000000     0          
T        Si     0.350000000000     0.447225000000     0.973950000000     0          
T        Si     0.350000000000     0.375000000000     0.903375000000     0          
O        O      0.350000000000     0.330875000000     0.931800000000     0          
T        Si     0.350000000000     0.302775000000     0.973950000000     0          
O        O      0.200000000000     0.434700000000     0.750000000000     0          
O        O      0.300000000000     0.315300000000     0.750000000000     0          
O        O      0.200000000000     0.565300000000     0.000000000000     0          
O        O      0.250000000000     0.500000000000     0.036375000000     0          
O        O      0.250000000000     0.580875000000     0.068200000000     0          
O        O      0.300000000000     0.625000000000     0.125000000000     0          
T        Si     0.250000000000     0.552775000000     0.026050000000     0          
T        Si     0.250000000000     0.625000000000     0.096625000000     0          
O        O      0.300000000000     0.684700000000     0.000000000000     0          
O        O      0.250000000000     0.669125000000     0.068200000000     0          
O        O      0.200000000000     0.625000000000     0.125000000000     0          
T        Si     0.250000000000     0.697225000000     0.026050000000     0          
O        O      0.350000000000     0.500000000000     0.213625000000     0          
O        O      0.350000000000     0.669125000000     0.181800000000     0          
T        Si     0.350000000000     0.697225000000     0.223950000000     0          
T        Si     0.350000000000     0.625000000000     0.153375000000     0          
O        O      0.350000000000     0.580875000000     0.181800000000     0          
T        Si     0.350000000000     0.552775000000     0.223950000000     0          
O        O      0.200000000000     0.684700000000     0.000000000000     0          
O        O      0.300000000000     0.565300000000     0.000000000000     0          
O        O      0.200000000000     0.565300000000     0.250000000000     0          
O        O      0.250000000000     0.500000000000     0.286375000000     0          
O        O      0.250000000000     0.580875000000     0.318200000000     0          
O        O      0.300000000000     0.625000000000     0.375000000000     0          
T        Si     0.250000000000     0.552775000000     0.276050000000     0          
T        Si     0.250000000000     0.625000000000     0.346625000000     0          
O        O      0.300000000000     0.684700000000     0.250000000000     0          
O        O      0.250000000000     0.669125000000     0.318200000000     0          
O        O      0.200000000000     0.625000000000     0.375000000000     0          
T        Si     0.250000000000     0.697225000000     0.276050000000     0          
O        O      0.350000000000     0.500000000000     0.463625000000     0          
O        O      0.350000000000     0.669125000000     0.431800000000     0          
T        Si     0.350000000000     0.697225000000     0.473950000000     0          
T        Si     0.350000000000     0.625000000000     0.403375000000     0          
O        O      0.350000000000     0.580875000000     0.431800000000     0          
T        Si     0.350000000000     0.552775000000     0.473950000000     0          
O        O      0.200000000000     0.684700000000     0.250000000000     0          
O        O      0.300000000000     0.565300000000     0.250000000000     0          
O        O      0.200000000000     0.565300000000     0.500000000000     0          
O        O      0.250000000000     0.500000000000     0.536375000000     0          
O        O      0.250000000000     0.580875000000     0.568200000000     0          
O        O      0.300000000000     0.625000000000     0.625000000000     0          
T        Si     0.250000000000     0.552775000000     0.526050000000     0          
T        Si     0.250000000000     0.625000000000     0.596625000000     0          
O        O      0.300000000000     0.684700000000     0.500000000000     0          
O        O      0.250000000000     0.669125000000     0.568200000000     0          
O        O      0.200000000000     0.625000000000     0.625000000000     0          
T        Si     0.250000000000     0.697225000000     0.526050000000     0          
O        O      0.350000000000     0.500000000000     0.713625000000     0          
O        O      0.350000000000     0.669125000000     0.681800000000     0          
T        Si     0.350000000000     0.697225000000     0.723950000000     0          
T        Si     0.350000000000     0.625000000000     0.653375000000     0          
O        O      0.350000000000     0.580875000000     0.681800000000     0          
T        Si     0.350000000000     0.552775000000     0.723950000000     0          
O        O      0.200000000000     0.684700000000     0.500000000000     0          
O        O      0.300000000000     0.565300000000     0.500000000000     0          
O        O      0.200000000000     0.565300000000     0.750000000000     0          
O        O      0.250000000000     0.500000000000     0.786375000000     0          
O        O      0.250000000000     0.580875000000     0.818200000000     0          
O        O      0.300000000000     0.625000000000     0.875000000000     0          
T        Si     0.250000000000     0.552775000000     0.776050000000     0          
T        Si     0.250000000000     0.625000000000     0.846625000000     0          
O        O      0.300000000000     0.684700000000     0.750000000000     0          
O        O      0.250000000000     0.669125000000     0.818200000000     0          
O        O      0.200000000000     0.625000000000     0.875000000000     0          
T        Si     0.250000000000     0.697225000000     0.776050000000     0          
O        O      0.350000000000     0.500000000000     0.963625000000     0          
O        O      0.350000000000     0.669125000000     0.931800000000     0          
T        Si     0.350000000000     0.697225000000     0.973950000000     0          
T        Si     0.350000000000     0.625000000000     0.903375000000     0          
O        O      0.350000000000     0.580875000000     0.931800000000     0          
T        Si     0.350000000000     0.552775000000     0.973950000000     0          
O        O      0.200000000000     0.684700000000     0.750000000000     0          
O        O      0.300000000000     0.565300000000     0.750000000000     0          
O        O      0.200000000000     0.815300000000     0.000000000000     0          
O        O      0.250000000000     0.750000000000     0.036375000000     0          
O        O      0.250000000000     0.830875000000     0.068200000000     0          
O        O      0.300000000000     0.875000000000     0.125000000000     0          
T        Si     0.250000000000     0.802775000000     0.026050000000     0          
T        Si     0.250000000000     0.875000000000     0.096625000000     0          
O        O      0.300000000000     0.934700000000     0.000000000000     0          
O        O      0.250000000000     0.919125000000     0.068200000000     0          
O        O      0.200000000000     0.875000000000     0.125000000000     0          
T        Si     0.250000000000     0.947225000000     0.026050000000     0          
O        O      0.350000000000     0.750000000000     0.213625000000     0          
O        O      0.350000000000     0.919125000000     0.181800000000     0          
T        Si     0.350000000000     0.947225000000     0.223950000000     0          
T        Si     0.350000000000     0.875000000000     0.153375000000     0          
O        O      0.350000000000     0.830875000000     0.181800000000     0          
T        Si     0.350000000000     0.802775000000     0.223950000000     0          
O        O      0.200000000000     0.934700000000     0.000000000000     0          
O        O      0.300000000000     0.815300000000     0.000000000000     0          
O        O      0.200000000000     0.815300000000     0.250000000000     0          
O        O      0.250000000000     0.750000000000     0.286375000000     0          
O        O      0.250000000000     0.830875000000     0.318200000000     0          
O        O      0.300000000000     0.875000000000     0.375000000000     0          
T        Si     0.250000000000     0.802775000000     0.276050000000     0          
T        Si     0.250000000000     0.875000000000     0.346625000000     0          
O        O      0.300000000000     0.934700000000     0.250000000000     0          
O        O      0.250000000000     0.919125000000     0.318200000000     0          
O        O      0.200000000000     0.875000000000     0.375000000000     0          
T        Si     0.250000000000     0.947225000000     0.276050000000     0          
O        O      0.350000000000     0.750000000000     0.463625000000     0          
O        O      0.350000000000     0.919125000000     0.431800000000     0          
T        Si     0.350000000000     0.947225000000     0.473950000000     0          
T        Si     0.350000000000     0.875000000000     0.403375000000     0          
O        O      0.350000000000     0.830875000000     0.431800000000     0          
T        Si     0.350000000000     0.802775000000     0.473950000000     0          
O        O      0.200000000000     0.934700000000     0.250000000000     0          
O        O      0.300000000000     0.815300000000     0.250000000000     0          
O        O      0.200000000000     0.815300000000     0.500000000000     0          
O        O      0.250000000000     0.750000000000     0.536375000000     0          
O        O      0.250000000000     0.830875000000     0.568200000000     0          
O        O      0.300000000000     0.875000000000     0.625000000000     0          
T        Si     0.250000000000     0.802775000000     0.526050000000     0          
T        Si     0.250000000000     0.875000000000     0.596625000000     0          
O        O      0.300000000000     0.934700000000     0.500000000000     0          
O        O      0.250000000000     0.919125000000     0.568200000000     0          
O        O      0.200000000000     0.875000000000     0.625000000000     0          
T        Si     0.250000000000     0.947225000000     0.526050000000     0          
O        O      0.350000000000     0.750000000000     0.713625000000     0          
O        O      0.350000000000     0.919125000000     0.681800000000     0          
T        Si     0.350000000000     0.947225000000     0.723950000000     0          
T        Si     0.350000000000     0.875000000000     0.653375000000     0          
O        O      0.350000000000     0.830875000000     0.681800000000     0          
T        Si     0.350000000000     0.802775000000     0.723950000000     0          
O        O      0.200000000000     0.934700000000     0.500000000000     0          
O        O      0.300000000000     0.815300000000     0.500000000000     0          
O        O      0.200000000000     0.815300000000     0.750000000000     0          
O        O      0.250000000000     0.750000000000     0.786375000000     0          
O        O      0.250000000000     0.830875000000     0.818200000000     0          
O        O      0.300000000000     0.875000000000     0.875000000000     0          
T        Si     0.250000000000     0.802775000000     0.776050000000     0          
T        Si     0.250000000000     0.875000000000     0.846625000000     0          
O        O      0.300000000000     0.934700000000     0.750000000000     0          
O        O      0.250000000000     0.919125000000     0.818200000000     0          
O        O      0.200000000000     0.875000000000     0.875000000000     0          
T        Si     0.250000000000     0.947225000000     0.776050000000     0          
O        O      0.350000000000     0.750000000000     0.963625000000     0          
O        O      0.350000000000     0.919125000000     0.931800000000     0          
T        Si     0.350000000000     0.947225000000     0.973950000000     0          
T        Si     0.350000000000     0.875000000000     0.903375000000     0          
O        O      0.350000000000     0.830875000000     0.931800000000     0          
T        Si     0.350000000000     0.802775000000     0.973950000000     0          
O        O      0.200000000000     0.934700000000     0.750000000000     0          
O        O      0.300000000000     0.815300000000     0.750000000000     0          
O        O      0.400000000000     0.065300000000     0.000000000000     0          
O        O      0.450000000000     0.000000000000     0.036375000000     0          
O        O      0.450000000000     0.080875000000     0.068200000000     0          
O        O      0.500000000000     0.125000000000     0.125000000000     0          
T        Si     0.450000000000     0.052775000000     0.026050000000     0          
T        Si     0.450000000000     0.125000000000     0.096625000000     0          
O        O      0.500000000000     0.184700000000     0.000000000000     0          
O        O      0.450000000000     0.169125000000     0.068200000000     0          
O        O      0.400000000000     0.125000000000     0.125000000000     0          
T        Si     0.450000000000     0.197225000000     0.026050000000     0          
O        O      0.550000000000     0.000000000000     0.213625000000     0          
O        O      0.550000000000     0.169125000000     0.181800000000     0          
T        Si     0.550000000000     0.197225000000     0.223950000000     0          
T        Si     0.550000000000     0.125000000000     0.153375000000     0          
O        O      0.550000000000     0.080875000000     0.181800000000     0          
T        Si     0.550000000000     0.052775000000     0.223950000000     0          
O        O      0.400000000000     0.184700000000     0.000000000000     0          
O        O      0.500000000000     0.065300000000     0.000000000000     0          
O        O      0.400000000000     0.065300000000     0.250000000000     0          
O        O      0.450000000000     0.000000000000     0.286375000000     0          
O        O      0.450000000000     0.080875000000     0.318200000000     0          
O        O      0.500000000000     0.125000000000     0.375000000000     0          
T        Si     0.450000000000     0.052775000000     0.276050000000     0          
T        Si     0.450000000000     0.125000000000     0.346625000000     0          
O        O      0.500000000000     0.184700000000     0.250000000000     0          
O        O      0.450000000000     0.169125000000     0.318200000000     0          
O        O      0.400000000000     0.125000000000     0.375000000000     0          
T        Si     0.450000000000     0.197225000000     0.276050000000     0          
O        O      0.550000000000     0.000000000000     0.463625000000     0          
O        O      0.550000000000     0.169125000000     0.431800000000     0          
T        Si     0.550000000000     0.197225000000     0.473950000000     0          
T        Si     0.550000000000     0.125000000000     0.403375000000     0          
O        O      0.550000000000     0.080875000000     0.431800000000     0          
T        Si     0.550000000000     0.052775000000     0.473950000000     0          
O        O      0.400000000000     0.184700000000     0.250000000000     0          
O        O      0.500000000000     0.065300000000     0.250000000000     0          
O        O      0.400000000000     0.065300000000     0.500000000000     0          
O        O      0.450000000000     0.000000000000     0.536375000000     0          
O        O      0.450000000000     0.080875000000     0.568200000000     0          
O        O      0.500000000000     0.125000000000     0.625000000000     0          
T        Si     0.450000000000     0.052775000000     0.526050000000     0          
T        Si     0.450000000000     0.125000000000     0.596625000000     0          
O        O      0.500000000000     0.184700000000     0.500000000000     0          
O        O      0.450000000000     0.169125000000     0.568200000000     0          
O        O      0.400000000000     0.125000000000     0.625000000000     0          
T        Si     0.450000000000     0.197225000000     0.526050000000     0          
O        O      0.550000000000     0.000000000000     0.713625000000     0          
O        O      0.550000000000     0.169125000000     0.681800000000     0          
T        Si     0.550000000000     0.197225000000     0.723950000000     0          
T        Si     0.550000000000     0.125000000000     0.653375000000     0          
O        O      0.550000000000     0.080875000000     0.681800000000     0          
T        Si     0.550000000000     0.052775000000     0.723950000000     0          
O        O      0.400000000000     0.184700000000     0.500000000000     0          
O        O      0.500000000000     0.065300000000     0.500000000000     0          
O        O      0.400000000000     0.065300000000     0.750000000000     0          
O        O      0.450000000000     0.000000000000     0.786375000000     0          
O        O      0.450000000000     0.080875000000     0.818200000000     0          
O        O      0.500000000000     0.125000000000     0.875000000000     0          
T        Si     0.450000000000     0.052775000000     0.776050000000     0          
T        Si     0.450000000000     0.125000000000     0.846625000000     0          
O        O      0.500000000000     0.184700000000     0.750000000000     0          
O        O      0.450000000000     0.169125000000     0.818200000000     0          
O        O      0.400000000000     0.125000000000     0.875000000000     0          
T        Si     0.450000000000     0.197225000000     0.776050000000     0          
O        O      0.550000000000     0.000000000000     0.963625000000     0          
O        O      0.550000000000     0.169125000000     0.931800000000     0          
T        Si     0.550000000000     0.197225000000     0.973950000000     0          
T        Si     0.550000000000     0.125000000000     0.903375000000     0          
O        O      0.550000000000     0.080875000000     0.931800000000     0          
T        Si     0.550000000000     0.052775000000     0.973950000000     0          
O        O      0.400000000000     0.184700000000     0.750000000000     0          
O        O      0.500000000000     0.065300000000     0.750000000000     0          
O        O      0.400000000000     0.315300000000     0.000000000000     0          
O        O      0.450000000000     0.250000000000     0.036375000000     0          
O        O      0.450000000000     0.330875000000     0.068200000000     0          
O        O      0.500000000000     0.375000000000     0.125000000000     0          
T        Si     0.450000000000     0.302775000000     0.026050000000     0          
T        Si     0.450000000000     0.375000000000     0.096625000000     0          
O        O      0.500000000000     0.434700000000     0.000000000000     0          
O        O      0.450000000000     0.419125000000     0.068200000000     0          
O        O      0.400000000000     0.375000000000     0.125000000000     0          
T        Si     0.450000000000     0.447225000000     0.026050000000     0          
O        O      0.550000000000     0.250000000000     0.213625000000     0          
O        O      0.550000000000     0.419125000000     0.181800000000     0          
T        Si     0.550000000000     0.447225000000     0.223950000000     0          
T        Si     0.550000000000     0.375000000000     0.153375000000     0          
O        O      0.550000000000     0.330875000000     0.181800000000     0          
T        Si     0.550000000000     0.302775000000     0.223950000000     0          
O        O      0.400000000000     0.434700000000     0.000000000000     0          
O        O      0.500000000000     0.315300000000     0.000000000000     0          
O        O      0.400000000000     0.315300000000     0.250000000000     0          
O        O      0.450000000000     0.250000000000     0.286375000000     0          
O        O      0.450000000000     0.330875000000     0.318200000000     0          
O        O      0.500000000000     0.375000000000     0.375000000000     0          
T        Si     0.450000000000     0.302775000000     0.276050000000     0          
T        Si     0.450000000000     0.375000000000     0.346625000000     0          
O        O      0.500000000000     0.434700000000     0.250000000000     0          
O        O      0.450000000000     0.419125000000     0.318200000000     0          
O        O      0.400000000000     0.375000000000     0.375000000000     0          
T        Si     0.450000000000     0.447225000000     0.276050000000     0          
O        O      0.550000000000     0.250000000000     0.463625000000     0          
O        O      0.550000000000     0.419125000000     0.431800000000     0          
T        Si     0.550000000000     0.447225000000     0.473950000000     0          
T        Si     0.550000000000     0.375000000000     0.403375000000     0          
O        O      0.550000000000     0.330875000000     0.431800000000     0          
T        Si     0.550000000000     0.302775000000     0.473950000000     0          
O        O      0.400000000000     0.434700000000     0.250000000000     0          
O        O      0.500000000000     0.315300000000     0.250000000000     0          
O        O      0.400000000000     0.315300000000     0.500000000000     0          
O        O      0.450000000000     0.250000000000     0.536375000000     0          
O        O      0.450000000000     0.330875000000     0.568200000000     0          
O        O      0.500000000000     0.375000000000     0.625000000000     0          
T        Si     0.450000000000     0.302775000000     0.526050000000     0          
T        Si     0.450000000000     0.375000000000     0.596625000000     0          
O        O      0.500000000000     0.434700000000     0.500000000000     0          
O        O      0.450000000000     0.419125000000     0.568200000000     0          
O        O      0.400000000000     0.375000000000     0.625000000000     0          
T        Si     0.450000000000     0.447225000000     0.526050000000     0          
O        O      0.550000000000     0.250000000000     0.713625000000     0          
O        O      0.550000000000     0.419125000000     0.681800000000     0          
T        Si     0.550000000000     0.447225000000     0.723950000000     0          
T        Si     0.550000000000     0.375000000000     0.653375000000     0          
O        O      0.550000000000     0.330875000000     0.681800000000     0          
T        Si     0.550000000000     0.302775000000     0.723950000000     0          
O        O      0.400000000000     0.434700000000     0.500000000000     0          
O        O      0.500000000000     0.315300000000     0.500000000000     0          
O        O      0.400000000000     0.315300000000     0.750000000000     0          
O        O      0.450000000000     0.250000000000     0.786375000000     0          
O        O      0.450000000000     0.330875000000     0.818200000000     0          
O        O      0.500000000000     0.375000000000     0.875000000000     0          
T        Si     0.450000000000     0.302775000000     0.776050000000     0          
T        Si     0.450000000000     0.375000000000     0.846625000000     0          
O        O      0.500000000000     0.434700000000     0.750000000000     0          
O        O      0.450000000000     0.419125000000     0.818200000000     0          
O        O      0.400000000000     0.375000000000     0.875000000000     0          
T        Si     0.450000000000     0.447225000000     0.776050000000     0          
O        O      0.550000000000     0.250000000000     0.963625000000     0          
O        O      0.550000000000     0.419125000000     0.931800000000     0          
T        Si     0.550000000000     0.447225000000     0.973950000000     0          
T        Si     0.550000000000     0.375000000000     0.903375000000     0          
O        O      0.550000000000     0.330875000000     0.931800000000     0          
T        Si     0.550000000000     0.302775000000     0.973950000000     0          
O        O      0.400000000000     0.434700000000     0.750000000000     0          
O        O      0.500000000000     0.315300000000     0.750000000000     0          
O        O      0.400000000000     0.565300000000     0.000000000000     0          
O        O      0.450000000000     0.500000000000     0.036375000000     0          
O        O      0.450000000000     0.580875000000     0.068200000000     0          
O        O      0.500000000000     0.625000000000     0.125000000000     0          
T        Si     0.450000000000     0.552775000000     0.026050000000     0          
T        Si     0.450000000000     0.625000000000     0.096625000000     0          
O        O      0.500000000000     0.684700000000     0.000000000000     0          
O        O      0.450000000000     0.669125000000     0.068200000000     0          
O        O      0.400000000000     0.625000000000     0.125000000000     0          
T        Si     0.450000000000     0.697225000000     0.026050000000     0          
O        O      0.550000000000     0.500000000000     0.213625000000     0          
O        O      0.550000000000     0.669125000000     0.181800000000     0          
T        Si     0.550000000000     0.697225000000     0.223950000000     0          
T        Si     0.550000000000     0.625000000000     0.153375000000     0          
O        O      0.550000000000     0.580875000000     0.181800000000     0          
T        Si     0.550000000000     0.552775000000     0.223950000000     0          
O        O      0.400000000000     0.684700000000     0.000000000000     0          
O        O      0.500000000000     0.565300000000     0.000000000000     0          
O        O      0.400000000000     0.565300000000     0.250000000000     0          
O        O      0.450000000000     0.500000000000     0.286375000000     0          
O        O      0.450000000000     0.580875000000     0.318200000000     0          
O        O      0.500000000000     0.625000000000     0.375000000000     0          
T        Si     0.450000000000     0.552775000000     0.276050000000     0          
T        Si     0.450000000000     0.625000000000     0.346625000000     0          
O        O      0.500000000000     0.684700000000     0.250000000000     0          
O        O      0.450000000000     0.669125000000     0.318200000000     0          
O        O      0.400000000000     0.625000000000     0.375000000000     0          
T        Si     0.450000000000     0.697225000000     0.276050000000     0          
O        O      0.550000000000     0.500000000000     0.463625000000     0          
O        O      0.550000000000     0.669125000000     0.431800000000     0          
T        Si     0.550000000000     0.697225000000     0.473950000000     0          
T        Si     0.550000000000     0.625000000000     0.403375000000     0          
O        O      0.550000000000     0.580875000000     0.431800000000     0          
T        Si     0.550000000000     0.552775000000     0.473950000000     0          
O        O      0.400000000000     0.684700000000     0.250000000000     0          
O        O      0.500000000000     0.565300000000     0.250000000000     0          
O        O      0.400000000000     0.565300000000     0.500000000000     0          
O        O      0.450000000000     0.500000000000     0.536375000000     0          
O        O      0.450000000000     0.580875000000     0.568200000000     0          
O        O      0.500000000000     0.625000000000     0.625000000000     0          
T        Si     0.450000000000     0.552775000000     0.526050000000     0          
T        Si     0.450000000000     0.625000000000     0.596625000000     0          
O        O      0.500000000000     0.684700000000     0.500000000000     0          
O        O      0.450000000000     0.669125000000     0.568200000000     0          
O        O      0.400000000000     0.625000000000     0.625000000000     0          
T        Si     0.450000000000     0.697225000000     0.526050000000     0          
O        O      0.550000000000     0.500000000000     0.713625000000     0          
O        O      0.550000000000     0.669125000000     0.681800000000     0          
T        Si     0.550000000000     0.697225000000     0.723950000000     0          
T        Si     0.550000000000     0.625000000000     0.653375000000     0          
O        O      0.550000000000     0.580875000000     0.681800000000     0          
T        Si     0.550000000000     0.552775000000     0.723950000000     0          
O        O      0.400000000000     0.684700000000     0.500000000000     0          
O        O      0.500000000000     0.565300000000     0.500000000000     0          
O        O      0.400000000000     0.565300000000     0.750000000000     0          
O        O      0.450000000000     0.500000000000     0.786375000000     0          
O        O      0.450000000000     0.580875000000     0.818200000000     0          
O        O      0.500000000000     0.625000000000     0.875000000000     0          
T        Si     0.450000000000     0.552775000000     0.776050000000     0          
T        Si     0.450000000000     0.625000000000     0.846625000000     0          
O        O      0.500000000000     0.684700000000     0.750000000000     0          
O        O      0.450000000000     0.669125000000     0.818200000000     0          
O        O      0.400000000000     0.625000000000     0.875000000000     0          
T        Si     0.450000000000     0.697225000000     0.776050000000     0          
O        O      0.550000000000     0.500000000000     0.963625000000     0          
O        O      0.550000000000     0.669125000000     0.931800000000     0          
T        Si     0.550000000000     0.697225000000     0.973950000000     0          
T        Si     0.550000000000     0.625000000000     0.903375000000     0          
O        O      0.550000000000     0.580875000000     0.931800000000     0          
T        Si     0.550000000000     0.552775000000     0.973950000000     0          
O        O      0.400000000000     0.684700000000     0.750000000000     0          
O        O      0.500000000000     0.565300000000     0.750000000000     0          
O        O      0.400000000000     0.815300000000     0.000000000000     0          
O        O      0.450000000000     0.750000000000     0.036375000000     0          
O        O      0.450000000000     0.830875000000     0.068200000000     0          
O        O      0.500000000000     0.875000000000     0.125000000000     0          
T        Si     0.450000000000     0.802775000000     0.026050000000     0          
T        Si     0.450000000000     0.875000000000     0.096625000000     0          
O        O      0.500000000000     0.934700000000     0.000000000000     0          
O        O      0.450000000000     0.919125000000     0.068200000000     0          
O        O      0.400000000000     0.875000000000     0.125000000000     0          
T        Si     0.450000000000     0.947225000000     0.026050000000     0          
O        O      0.550000000000     0.750000000000     0.213625000000     0          
O        O      0.550000000000     0.919125000000     0.181800000000     0          
T        Si     0.550000000000     0.947225000000     0.223950000000     0          
T        Si     0.550000000000     0.875000000000     0.153375000000     0          
O        O      0.550000000000     0.830875000000     0.181800000000     0          
T        Si     0.550000000000     0.802775000000     0.223950000000     0          
O        O      0.400000000000     0.934700000000     0.000000000000     0          
O        O      0.500000000000     0.815300000000     0.000000000000     0          
O        O      0.400000000000     0.815300000000     0.250000000000     0          
O        O      0.450000000000     0.750000000000     0.286375000000     0          
O        O      0.450000000000     0.830875000000     0.318200000000     0          
O        O      0.500000000000     0.875000000000     0.375000000000     0          
T        Si     0.450000000000     0.802775000000     0.276050000000     0          
T        Si     0.450000000000     0.875000000000     0.346625000000     0          
O        O      0.500000000000     0.934700000000     0.250000000000     0          
O        O      0.450000000000     0.919125000000     0.318200000000     0          
O        O      0.400000000000     0.875000000000     0.375000000000     0          
T        Si     0.450000000000     0.947225000000     0.276050000000     0          
O        O      0.550000000000     0.750000000000     0.463625000000     0          
O        O      0.550000000000     0.919125000000     0.431800000000     0          
T        Si     0.550000000000     0.947225000000     0.473950000000     0          
T        Si     0.550000000000     0.875000000000     0.403375000000     0          
O        O      0.550000000000     0.830875000000     0.431800000000     0          
T        Si     0.550000000000     0.802775000000     0.473950000000     0          
O        O      0.400000000000     0.934700000000     0.250000000000     0          
O        O      0.500000000000     0.815300000000     0.250000000000     0          
O        O      0.400000000000     0.815300000000     0.500000000000     0          
O        O      0.450000000000     0.750000000000     0.536375000000     0          
O        O      0.450000000000     0.830875000000     0.568200000000     0          
O        O      0.500000000000     0.875000000000     0.625000000000     0          
T        Si     0.450000000000     0.802775000000     0.526050000000     0          
T        Si     0.450000000000     0.875000000000     0.596625000000     0          
O        O      0.500000000000     0.934700000000     0.500000000000     0          
O        O      0.450000000000     0.919125000000     0.568200000000     0          
O        O      0.400000000000     0.875000000000     0.625000000000     0          
T        Si     0.450000000000     0.947225000000     0.526050000000     0          
O        O      0.550000000000     0.750000000000     0.713625000000     0          
O        O      0.550000000000     0.919125000000     0.681800000000     0          
T        Si     0.550000000000     0.947225000000     0.723950000000     0          
T        Si     0.550000000000     0.875000000000     0.653375000000     0          
O        O      0.550000000000     0.830875000000     0.681800000000     0          
T        Si     0.550000000000     0.802775000000     0.723950000000     0          
O        O      0.400000000000     0.934700000000     0.500000000000     0          
O        O      0.500000000000     0.815300000000     0.500000000000     0          
O        O      0.400000000000     0.815300000000     0.750000000000     0          
O        O      0.450000000000     0.750000000000     0.786375000000     0          
O        O      0.450000000000     0.830875000000     0.818200000000     0          
O        O      0.500000000000     0.875000000000     0.875000000000     0          
T        Si     0.450000000000     0.802775000000     0.776050000000     0          
T        Si     0.450000000000     0.875000000000     0.846625000000     0          
O        O      0.500000000000     0.934700000000     0.750000000000     0          
O        O      0.450000000000     0.919125000000     0.818200000000     0          
O        O      0.400000000000     0.875000000000     0.875000000000     0          
T        Si     0.450000000000     0.947225000000     0.776050000000     0          
O        O      0.550000000000     0.750000000000     0.963625000000     0          
O        O      0.550000000000     0.919125000000     0.931800000000     0          
T        Si     0.550000000000     0.947225000000     0.973950000000     0          
T        Si     0.550000000000     0.875000000000     0.903375000000     0          
O        O      0.550000000000     0.830875000000     0.931800000000     0          
T        Si     0.550000000000     0.802775000000     0.973950000000     0          
O        O      0.400000000000     0.934700000000     0.750000000000     0          
O        O      0.500000000000     0.815300000000     0.750000000000     0          
O        O      0.600000000000     0.065300000000     0.000000000000     0          
O        O      0.650000000000     0.000000000000     0.036375000000     0          
O        O      0.650000000000     0.080875000000     0.068200000000     0          
O        O      0.700000000000     0.125000000000     0.125000000000     0          
T        Si     0.650000000000     0.052775000000     0.026050000000     0          
T        Si     0.650000000000     0.125000000000     0.096625000000     0          
O        O      0.700000000000     0.184700000000     0.000000000000     0          
O        O      0.650000000000     0.169125000000     0.068200000000     0          
O        O      0.600000000000     0.125000000000     0.125000000000     0          
T        Si     0.650000000000     0.197225000000     0.026050000000     0          
O        O      0.750000000000     0.000000000000     0.213625000000     0          
O        O      0.750000000000     0.169125000000     0.181800000000     0          
T        Si     0.750000000000     0.197225000000     0.223950000000     0          
T        Si     0.750000000000     0.125000000000     0.153375000000     0          
O        O      0.750000000000     0.080875000000     0.181800000000     0          
T        Si     0.750000000000     0.052775000000     0.223950000000     0          
O        O      0.600000000000     0.184700000000     0.000000000000     0          
O        O      0.700000000000     0.065300000000     0.000000000000     0          
O        O      0.600000000000     0.065300000000     0.250000000000     0          
O        O      0.650000000000     0.000000000000     0.286375000000     0          
O        O      0.650000000000     0.080875000000     0.318200000000     0          
O        O      0.700000000000     0.125000000000     0.375000000000     0          
T        Si     0.650000000000     0.052775000000     0.276050000000     0          
T        Si     0.650000000000     0.125000000000     0.346625000000     0          
O        O      0.700000000000     0.184700000000     0.250000000000     0          
O        O      0.650000000000     0.169125000000     0.318200000000     0          
O        O      0.600000000000     0.125000000000     0.375000000000     0          
T        Si     0.650000000000     0.197225000000     0.276050000000     0          
O        O      0.750000000000     0.000000000000     0.463625000000     0          
O        O      0.750000000000     0.169125000000     0.431800000000     0          
T        Si     0.750000000000     0.197225000000     0.473950000000     0          
T        Si     0.750000000000     0.125000000000     0.403375000000     0          
O        O      0.750000000000     0.080875000000     0.431800000000     0          
T        Si     0.750000000000     0.052775000000     0.473950000000     0          
O        O      0.600000000000     0.184700000000     0.250000000000     0          
O        O      0.700000000000     0.065300000000     0.250000000000     0          
O        O      0.600000000000     0.065300000000     0.500000000000     0          
O        O      0.650000000000     0.000000000000     0.536375000000     0          
O        O      0.650000000000     0.080875000000     0.568200000000     0          
O        O      0.700000000000     0.125000000000     0.625000000000     0          
T        Si     0.650000000000     0.052775000000     0.526050000000     0          
T        Si     0.650000000000     0.125000000000     0.596625000000     0          
O        O      0.700000000000     0.184700000000     0.500000000000     0          
O        O      0.650000000000     0.169125000000     0.568200000000     0          
O        O      0.600000000000     0.125000000000     0.625000000000     0          
T        Si     0.650000000000     0.197225000000     0.526050000000     0          
O        O      0.750000000000     0.000000000000     0.713625000000     0          
O        O      0.750000000000     0.169125000000     0.681800000000     0          
T        Si     0.750000000000     0.197225000000     0.723950000000     0          
T        Si     0.750000000000     0.125000000000     0.653375000000     0          
O        O      0.750000000000     0.080875000000     0.681800000000     0          
T        Si     0.750000000000     0.052775000000     0.723950000000     0          
O        O      0.600000000000     0.184700000000     0.500000000000     0          
O        O      0.700000000000     0.065300000000     0.500000000000     0          
O        O      0.600000000000     0.065300000000     0.750000000000     0          
O        O      0.650000000000     0.000000000000     0.786375000000     0          
O        O      0.650000000000     0.080875000000     0.818200000000     0          
O        O      0.700000000000     0.125000000000     0.875000000000     0          
T        Si     0.650000000000     0.052775000000     0.776050000000     0          
T        Si     0.650000000000     0.125000000000     0.846625000000     0          
O        O      0.700000000000     0.184700000000     0.750000000000     0          
O        O      0.650000000000     0.169125000000     0.818200000000     0          
O        O      0.600000000000     0.125000000000     0.875000000000     0          
T        Si     0.650000000000     0.197225000000     0.776050000000     0          
O        O      0.750000000000     0.000000000000     0.963625000000     0          
O        O      0.750000000000     0.169125000000     0.931800000000     0          
T        Si     0.750000000000     0.197225000000     0.973950000000     0          
T        Si     0.750000000000     0.125000000000     0.903375000000     0          
O        O      0.750000000000     0.080875000000     0.931800000000     0          
T        Si     0.750000000000     0.052775000000     0.973950000000     0          
O        O      0.600000000000     0.184700000000     0.750000000000     0          
O        O      0.700000000000     0.065300000000     0.750000000000     0          
O        O      0.600000000000     0.315300000000     0.000000000000     0          
O        O      0.650000000000     0.250000000000     0.036375000000     0          
O        O      0.650000000000     0.330875000000     0.068200000000     0          
O        O      0.700000000000     0.375000000000     0.125000000000     0          
T        Si     0.650000000000     0.302775000000     0.026050000000     0          
T        Si     0.650000000000     0.375000000000     0.096625000000     0          
O        O      0.700000000000     0.434700000000     0.000000000000     0          
O        O      0.650000000000     0.419125000000     0.068200000000     0          
O        O      0.600000000000     0.375000000000     0.125000000000     0          
T        Si     0.650000000000     0.447225000000     0.026050000000     0          
O        O      0.750000000000     0.250000000000     0.213625000000     0          
O        O      0.750000000000     0.419125000000     0.181800000000     0          
T        Si     0.750000000000     0.447225000000     0.223950000000     0          
T        Si     0.750000000000     0.375000000000     0.153375000000     0          
O        O      0.750000000000     0.330875000000     0.181800000000     0          
T        Si     0.750000000000     0.302775000000     0.223950000000     0          
O        O      0.600000000000     0.434700000000     0.000000000000     0          
O        O      0.700000000000     0.315300000000     0.000000000000     0          
O        O      0.600000000000     0.315300000000     0.250000000000     0          
O        O      0.650000000000     0.250000000000     0.286375000000     0          
O        O      0.650000000000     0.330875000000     0.318200000000     0          
O        O      0.700000000000     0.375000000000     0.375000000000     0          
T        Si     0.650000000000     0.302775000000     0.276050000000     0          
T        Si     0.650000000000     0.375000000000     0.346625000000     0          
O        O      0.700000000000     0.434700000000     0.250000000000     0          
O        O      0.650000000000     0.419125000000     0.318200000000     0          
O        O      0.600000000000     0.375000000000     0.375000000000     0          
T        Si     0.650000000000     0.447225000000     0.276050000000     0          
O        O      0.750000000000     0.250000000000     0.463625000000     0          
O        O      0.750000000000     0.419125000000     0.431800000000     0          
T        Si     0.750000000000     0.447225000000     0.473950000000     0          
T        Si     0.750000000000     0.375000000000     0.403375000000     0          
O        O      0.750000000000     0.330875000000     0.431800000000     0          
T        Si     0.750000000000     0.302775000000     0.473950000000     0          
O        O      0.600000000000     0.434700000000     0.250000000000     0          
O        O      0.700000000000     0.315300000000     0.250000000000     0          
O        O      0.600000000000     0.315300000000     0.500000000000     0          
O        O      0.650000000000     0.250000000000     0.536375000000     0          
O        O      0.650000000000     0.330875000000     0.568200000000     0          
O        O      0.700000000000     0.375000000000     0.625000000000     0          
T        Si     0.650000000000     0.302775000000     0.526050000000     0          
T        Si     0.650000000000     0.375000000000     0.596625000000     0          
O        O      0.700000000000     0.434700000000     0.500000000000     0          
O        O      0.650000000000     0.419125000000     0.568200000000     0          
O        O      0.600000000000     0.375000000000     0.625000000000     0          
T        Si     0.650000000000     0.447225000000     0.526050000000     0          
O        O      0.750000000000     0.250000000000     0.713625000000     0          
O        O      0.750000000000     0.419125000000     0.681800000000     0          
T        Si     0.750000000000     0.447225000000     0.723950000000     0          
T        Si     0.750000000000     0.375000000000     0.653375000000     0          
O        O      0.750000000000     0.330875000000     0.681800000000     0          
T        Si     0.750000000000     0.302775000000     0.723950000000     0          
O        O      0.600000000000     0.434700000000     0.500000000000     0          
O        O      0.700000000000     0.315300000000     0.500000000000     0          
O        O      0.600000000000     0.315300000000     0.750000000000     0          
O        O      0.650000000000     0.250000000000     0.786375000000     0          
O        O      0.650000000000     0.330875000000     0.818200000000     0          
O        O      0.700000000000     0.375000000000     0.875000000000     0          
T        Si     0.650000000000     0.302775000000     0.776050000000     0          
T        Si     0.650000000000     0.375000000000     0.846625000000     0          
O        O      0.700000000000     0.434700000000     0.750000000000     0          
O        O      0.650000000000     0.419125000000     0.818200000000     0          
O        O      0.600000000000     0.375000000000     0.875000000000     0          
T        Si     0.650000000000     0.447225000000     0.776050000000     0          
O        O      0.750000000000     0.250000000000     0.963625000000     0          
O        O      0.750000000000     0.419125000000     0.931800000000     0          
T        Si     0.750000000000     0.447225000000     0.973950000000     0          
T        Si     0.750000000000     0.375000000000     0.903375000000     0          
O        O      0.750000000000     0.330875000000     0.931800000000     0          
T        Si     0.750000000000     0.302775000000     0.973950000000     0          
O        O      0.600000000000     0.434700000000     0.750000000000     0          
O        O      0.700000000000     0.315300000000     0.750000000000     0          
O        O      0.600000000000     0.565300000000     0.000000000000     0          
O        O      0.650000000000     0.500000000000     0.036375000000     0          
O        O      0.650000000000     0.580875000000     0.068200000000     0          
O        O      0.700000000000     0.625000000000     0.125000000000     0          
T        Si     0.650000000000     0.552775000000     0.026050000000     0          
T        Si     0.650000000000     0.625000000000     0.096625000000     0          
O        O      0.700000000000     0.684700000000     0.000000000000     0          
O        O      0.650000000000     0.669125000000     0.068200000000     0          
O        O      0.600000000000     0.625000000000     0.125000000000     0          
T        Si     0.650000000000     0.697225000000     0.026050000000     0          
O        O      0.750000000000     0.500000000000     0.213625000000     0          
O        O      0.750000000000     0.669125000000     0.181800000000     0          
T        Si     0.750000000000     0.697225000000     0.223950000000     0          
T        Si     0.750000000000     0.625000000000     0.153375000000     0          
O        O      0.750000000000     0.580875000000     0.181800000000     0          
T        Si     0.750000000000     0.552775000000     0.223950000000     0          
O        O      0.600000000000     0.684700000000     0.000000000000     0          
O        O      0.700000000000     0.565300000000     0.000000000000     0          
O        O      0.600000000000     0.565300000000     0.250000000000     0          
O        O      0.650000000000     0.500000000000     0.286375000000     0          
O        O      0.650000000000     0.580875000000     0.318200000000     0          
O        O      0.700000000000     0.625000000000     0.375000000000     0          
T        Si     0.650000000000     0.552775000000     0.276050000000     0          
T        Si     0.650000000000     0.625000000000     0.346625000000     0          
O        O      0.700000000000     0.684700000000     0.250000000000     0          
O        O      0.650000000000     0.669125000000     0.318200000000     0          
O        O      0.600000000000     0.625000000000     0.375000000000     0          
T        Si     0.650000000000     0.697225000000     0.276050000000     0          
O        O      0.750000000000     0.500000000000     0.463625000000     0          
O        O      0.750000000000     0.669125000000     0.431800000000     0          
T        Si     0.750000000000     0.697225000000     0.473950000000     0          
T        Si     0.750000000000     0.625000000000     0.403375000000     0          
O        O      0.750000000000     0.580875000000     0.431800000000     0          
T        Si     0.750000000000     0.552775000000     0.473950000000     0          
O        O      0.600000000000     0.684700000000     0.250000000000     0          
O        O      0.700000000000     0.565300000000     0.250000000000     0          
O        O      0.600000000000     0.565300000000     0.500000000000     0          
O        O      0.650000000000     0.500000000000     0.536375000000     0          
O        O      0.650000000000     0.580875000000     0.568200000000     0          
O        O      0.700000000000     0.625000000000     0.625000000000     0          
T        Si     0.650000000000     0.552775000000     0.526050000000     0          
T        Si     0.650000000000     0.625000000000     0.596625000000     0          
O        O      0.700000000000     0.684700000000     0.500000000000     0          
O        O      0.650000000000     0.669125000000     0.568200000000     0          
O        O      0.600000000000     0.625000000000     0.625000000000     0          
T        Si     0.650000000000     0.697225000000     0.526050000000     0          
O        O      0.750000000000     0.500000000000     0.713625000000     0          
O        O      0.750000000000     0.669125000000     0.681800000000     0          
T        Si     0.750000000000     0.697225000000     0.723950000000     0          
T        Si     0.750000000000     0.625000000000     0.653375000000     0          
O        O      0.750000000000     0.580875000000     0.681800000000     0          
T        Si     0.750000000000     0.552775000000     0.723950000000     0          
O        O      0.600000000000     0.684700000000     0.500000000000     0          
O        O      0.700000000000     0.565300000000     0.500000000000     0          
O        O      0.600000000000     0.565300000000     0.750000000000     0          
O        O      0.650000000000     0.500000000000     0.786375000000     0          
O        O      0.650000000000     0.580875000000     0.818200000000     0          
O        O      0.700000000000     0.625000000000     0.875000000000     0          
T        Si     0.650000000000     0.552775000000     0.776050000000     0          
T        Si     0.650000000000     0.625000000000     0.846625000000     0          
O        O      0.700000000000     0.684700000000     0.750000000000     0          
O        O      0.650000000000     0.669125000000     0.818200000000     0          
O        O      0.600000000000     0.625000000000     0.875000000000     0          
T        Si     0.650000000000     0.697225000000     0.776050000000     0          
O        O      0.750000000000     0.500000000000     0.963625000000     0          
O        O      0.750000000000     0.669125000000     0.931800000000     0          
T        Si     0.750000000000     0.697225000000     0.973950000000     0          
T        Si     0.750000000000     0.625000000000     0.903375000000     0          
O        O      0.750000000000     0.580875000000     0.931800000000     0          
T        Si     0.750000000000     0.552775000000     0.973950000000     0          
O        O      0.600000000000     0.684700000000     0.750000000000     0          
O        O      0.700000000000     0.565300000000     0.750000000000     0          
O        O      0.600000000000     0.815300000000     0.000000000000     0          
O        O      0.650000000000     0.750000000000     0.036375000000     0          
O        O      0.650000000000     0.830875000000     0.068200000000     0          
O        O      0.700000000000     0.875000000000     0.125000000000     0          
T        Si     0.650000000000     0.802775000000     0.026050000000     0          
T        Si     0.650000000000     0.875000000000     0.096625000000     0          
O        O      0.700000000000     0.934700000000     0.000000000000     0          
O        O      0.650000000000     0.919125000000     0.068200000000     0          
O        O      0.600000000000     0.875000000000     0.125000000000     0          
T        Si     0.650000000000     0.947225000000     0.026050000000     0          
O        O      0.750000000000     0.750000000000     0.213625000000     0          
O        O      0.750000000000     0.919125000000     0.181800000000     0          
T        Si     0.750000000000     0.947225000000     0.223950000000     0          
T        Si     0.750000000000     0.875000000000     0.153375000000     0          
O        O      0.750000000000     0.830875000000     0.181800000000     0          
T        Si     0.750000000000     0.802775000000     0.223950000000     0          
O        O      0.600000000000     0.934700000000     0.000000000000     0          
O        O      0.700000000000     0.815300000000     0.000000000000     0          
O        O      0.600000000000     0.815300000000     0.250000000000     0          
O        O      0.650000000000     0.750000000000     0.286375000000     0          
O        O      0.650000000000     0.830875000000     0.318200000000     0          
O        O      0.700000000000     0.875000000000     0.375000000000     0          
T        Si     0.650000000000     0.802775000000     0.276050000000     0          
T        Si     0.650000000000     0.875000000000     0.346625000000     0          
O        O      0.700000000000     0.934700000000     0.250000000000     0          
O        O      0.650000000000     0.919125000000     0.318200000000     0          
O        O      0.600000000000     0.875000000000     0.375000000000     0          
T        Si     0.650000000000     0.947225000000     0.276050000000     0          
O        O      0.750000000000     0.750000000000     0.463625000000     0          
O        O      0.750000000000     0.919125000000     0.431800000000     0          
T        Si     0.750000000000     0.947225000000     0.473950000000     0          
T        Si     0.750000000000     0.875000000000     0.403375000000     0          
O        O      0.750000000000     0.830875000000     0.431800000000     0          
T        Si     0.750000000000     0.802775000000     0.473950000000     0          
O        O      0.600000000000     0.934700000000     0.250000000000     0          
O        O      0.700000000000     0.815300000000     0.250000000000     0          
O        O      0.600000000000     0.815300000000     0.500000000000     0          
O        O      0.650000000000     0.750000000000     0.536375000000     0          
O        O      0.650000000000     0.830875000000     0.568200000000     0          
O        O      0.700000000000     0.875000000000     0.625000000000     0          
T        Si     0.650000000000     0.802775000000     0.526050000000     0          
T        Si     0.650000000000     0.875000000000     0.596625000000     0          
O        O      0.700000000000     0.934700000000     0.500000000000     0          
O        O      0.650000000000     0.919125000000     0.568200000000     0          
O        O      0.600000000000     0.875000000000     0.625000000000     0          
T        Si     0.650000000000     0.947225000000     0.526050000000     0          
O        O      0.750000000000     0.750000000000     0.713625000000     0          
O        O      0.750000000000     0.919125000000     0.681800000000     0          
T        Si     0.750000000000     0.947225000000     0.723950000000     0          
T        Si     0.750000000000     0.875000000000     0.653375000000     0          
O        O      0.750000000000     0.830875000000     0.681800000000     0          
T        Si     0.750000000000     0.802775000000     0.723950000000     0          
O        O      0.600000000000     0.934700000000     0.500000000000     0          
O        O      0.700000000000     0.815300000000     0.500000000000     0          
O        O      0.600000000000     0.815300000000     0.750000000000     0          
O        O      0.650000000000     0.750000000000     0.786375000000     0          
O        O      0.650000000000     0.830875000000     0.818200000000     0          
O        O      0.700000000000     0.875000000000     0.875000000000     0          
T        Si     0.650000000000     0.802775000000     0.776050000000     0          
T        Si     0.650000000000     0.875000000000     0.846625000000     0          
O        O      0.700000000000     0.934700000000     0.750000000000     0          
O        O      0.650000000000     0.919125000000     0.818200000000     0          
O        O      0.600000000000     0.875000000000     0.875000000000     0          
T        Si     0.650000000000     0.947225000000     0.776050000000     0          
O        O      0.750000000000     0.750000000000     0.963625000000     0          
O        O      0.750000000000     0.919125000000     0.931800000000     0          
T        Si     0.750000000000     0.947225000000     0.973950000000     0          
T        Si     0.750000000000     0.875000000000     0.903375000000     0          
O        O      0.750000000000     0.830875000000     0.931800000000     0          
T        Si     0.750000000000     0.802775000000     0.973950000000     0          
O        O      0.600000000000     0.934700000000     0.750000000000     0          
O        O      0.700000000000     0.815300000000     0.750000000000     0          
O        O      0.800000000000     0.065300000000     0.000000000000     0          
O        O      0.850000000000     0.000000000000     0.036375000000     0          
O        O      0.850000000000     0.080875000000     0.068200000000     0          
O        O      0.900000000000     0.125000000000     0.125000000000     0          
T        Si     0.850000000000     0.052775000000     0.026050000000     0          
T        Si     0.850000000000     0.125000000000     0.096625000000     0          
O        O      0.900000000000     0.184700000000     0.000000000000     0          
O        O      0.850000000000     0.169125000000     0.068200000000     0          
O        O      0.800000000000     0.125000000000     0.125000000000     0          
T        Si     0.850000000000     0.197225000000     0.026050000000     0          
O        O      0.950000000000     0.000000000000     0.213625000000     0          
O        O      0.950000000000     0.169125000000     0.181800000000     0          
T        Si     0.950000000000     0.197225000000     0.223950000000     0          
T        Si     0.950000000000     0.125000000000     0.153375000000     0          
O        O      0.950000000000     0.080875000000     0.181800000000     0          
T        Si     0.950000000000     0.052775000000     0.223950000000     0          
O        O      0.800000000000     0.184700000000     0.000000000000     0          
O        O      0.900000000000     0.065300000000     0.000000000000     0          
O        O      0.800000000000     0.065300000000     0.250000000000     0          
O        O      0.850000000000     0.000000000000     0.286375000000     0          
O        O      0.850000000000     0.080875000000     0.318200000000     0          
O        O      0.900000000000     0.125000000000     0.375000000000     0          
T        Si     0.850000000000     0.052775000000     0.276050000000     0          
T        Si     0.850000000000     0.125000000000     0.346625000000     0          
O        O      0.900000000000     0.184700000000     0.250000000000     0          
O        O      0.850000000000     0.169125000000     0.318200000000     0          
O        O      0.800000000000     0.125000000000     0.375000000000     0          
T        Si     0.850000000000     0.197225000000     0.276050000000     0          
O        O      0.950000000000     0.000000000000     0.463625000000     0          
O        O      0.950000000000     0.169125000000     0.431800000000     0          
T        Si     0.950000000000     0.197225000000     0.473950000000     0          
T        Si     0.950000000000     0.125000000000     0.403375000000     0          
O        O      0.950000000000     0.080875000000     0.431800000000     0          
T        Si     0.950000000000     0.052775000000     0.473950000000     0          
O        O      0.800000000000     0.184700000000     0.250000000000     0          
O        O      0.900000000000     0.065300000000     0.250000000000     0          
O        O      0.800000000000     0.065300000000     0.500000000000     0          
O        O      0.850000000000     0.000000000000     0.536375000000     0          
O        O      0.850000000000     0.080875000000     0.568200000000     0          
O        O      0.900000000000     0.125000000000     0.625000000000     0          
T        Si     0.850000000000     0.052775000000     0.526050000000     0          
T        Si     0.850000000000     0.125000000000     0.596625000000     0          
O        O      0.900000000000     0.184700000000     0.500000000000     0          
O        O      0.850000000000     0.169125000000     0.568200000000     0          
O        O      0.800000000000     0.125000000000     0.625000000000     0          
T        Si     0.850000000000     0.197225000000     0.526050000000     0          
O        O      0.950000000000     0.000000000000     0.713625000000     0          
O        O      0.950000000000     0.169125000000     0.681800000000     0          
T        Si     0.950000000000     0.197225000000     0.723950000000     0          
T        Si     0.950000000000     0.125000000000     0.653375000000     0          
O        O      0.950000000000     0.080875000000     0.681800000000     0          
T        Si     0.950000000000     0.052775000000     0.723950000000     0          
O        O      0.800000000000     0.184700000000     0.500000000000     0          
O        O      0.900000000000     0.065300000000     0.500000000000     0          
O        O      0.800000000000     0.065300000000     0.750000000000     0          
O        O      0.850000000000     0.000000000000     0.786375000000     0          
O        O      0.850000000000     0.080875000000     0.818200000000     0          
O        O      0.900000000000     0.125000000000     0.875000000000     0          
T        Si     0.850000000000     0.052775000000     0.776050000000     0          
T        Si     0.850000000000     0.125000000000     0.846625000000     0          
O        O      0.900000000000     0.184700000000     0.750000000000     0          
O        O      0.850000000000     0.169125000000     0.818200000000     0          
O        O      0.800000000000     0.125000000000     0.875000000000     0          
T        Si     0.850000000000     0.197225000000     0.776050000000     0          
O        O      0.950000000000     0.000000000000     0.963625000000     0          
O        O      0.950000000000     0.169125000000     0.931800000000     0          
T        Si     0.950000000000     0.197225000000     0.973950000000     0          
T        Si     0.950000000000     0.125000000000     0.903375000000     0          
O        O      0.950000000000     0.080875000000     0.931800000000     0          
T        Si     0.950000000000     0.052775000000     0.973950000000     0          
O        O      0.800000000000     0.184700000000     0.750000000000     0          
O        O      0.900000000000     0.065300000000     0.750000000000     0          
O        O      0.800000000000     0.315300000000     0.000000000000     0          
O        O      0.850000000000     0.250000000000     0.036375000000     0          
O        O      0.850000000000     0.330875000000     0.068200000000     0          
O        O      0.900000000000     0.375000000000     0.125000000000     0          
T        Si     0.850000000000     0.302775000000     0.026050000000     0          
T        Si     0.850000000000     0.375000000000     0.096625000000     0          
O        O      0.900000000000     0.434700000000     0.000000000000     0          
O        O      0.850000000000     0.419125000000     0.068200000000     0          
O        O      0.800000000000     0.375000000000     0.125000000000     0          
T        Si     0.850000000000     0.447225000000     0.026050000000     0          
O        O      0.950000000000     0.250000000000     0.213625000000     0          
O        O      0.950000000000     0.419125000000     0.181800000000     0          
T        Si     0.950000000000     0.447225000000     0.223950000000     0          
T        Si     0.950000000000     0.375000000000     0.153375000000     0          
O        O      0.950000000000     0.330875000000     0.181800000000     0          
T        Si     0.950000000000     0.302775000000     0.223950000000     0          
O        O      0.800000000000     0.434700000000     0.000000000000     0          
O        O      0.900000000000     0.315300000000     0.000000000000     0          
O        O      0.800000000000     0.315300000000     0.250000000000     0          
O        O      0.850000000000     0.250000000000     0.286375000000     0          
O        O      0.850000000000     0.330875000000     0.318200000000     0          
O        O      0.900000000000     0.375000000000     0.375000000000     0          
T        Si     0.850000000000     0.302775000000     0.276050000000     0          
T        Si     0.850000000000     0.375000000000     0.346625000000     0          
O        O      0.900000000000     0.434700000000     0.250000000000     0          
O        O      0.850000000000     0.419125000000     0.318200000000     0          
O        O      0.800000000000     0.375000000000     0.375000000000     0          
T        Si     0.850000000000     0.447225000000     0.276050000000     0          
O        O      0.950000000000     0.250000000000     0.463625000000     0          
O        O      0.950000000000     0.419125000000     0.431800000000     0          
T        Si     0.950000000000     0.447225000000     0.473950000000     0          
T        Si     0.950000000000     0.375000000000     0.403375000000     0          
O        O      0.950000000000     0.330875000000     0.431800000000     0          
T        Si     0.950000000000     0.302775000000     0.473950000000     0          
O        O      0.800000000000     0.434700000000     0.250000000000     0          
O        O      0.900000000000     0.315300000000     0.250000000000     0          
O        O      0.800000000000     0.315300000000     0.500000000000     0          
O        O      0.850000000000     0.250000000000     0.536375000000     0          
O        O      0.850000000000     0.330875000000     0.568200000000     0          
O        O      0.900000000000     0.375000000000     0.625000000000     0          
T        Si     0.850000000000     0.302775000000     0.526050000000     0          
T        Si     0.850000000000     0.375000000000     0.596625000000     0          
O        O      0.900000000000     0.434700000000     0.500000000000     0          
O        O      0.850000000000     0.419125000000     0.568200000000     0          
O        O      0.800000000000     0.375000000000     0.625000000000     0          
T        Si     0.850000000000     0.447225000000     0.526050000000     0          
O        O      0.950000000000     0.250000000000     0.713625000000     0          
O        O      0.950000000000     0.419125000000     0.681800000000     0          
T        Si     0.950000000000     0.447225000000     0.723950000000     0          
T        Si     0.950000000000     0.375000000000     0.653375000000     0          
O        O      0.950000000000     0.330875000000     0.681800000000     0          
T        Si     0.950000000000     0.302775000000     0.723950000000     0          
O        O      0.800000000000     0.434700000000     0.500000000000     0          
O        O      0.900000000000     0.315300000000     0.500000000000     0          
O        O      0.800000000000     0.315300000000     0.750000000000     0          
O        O      0.850000000000     0.250000000000     0.786375000000     0          
O        O      0.850000000000     0.330875000000     0.818200000000     0          
O        O      0.900000000000     0.375000000000     0.875000000000     0          
T        Si     0.850000000000     0.302775000000     0.776050000000     0          
T        Si     0.850000000000     0.375000000000     0.846625000000     0          
O        O      0.900000000000     0.434700000000     0.750000000000     0          
O        O      0.850000000000     0.419125000000     0.818200000000     0          
O        O      0.800000000000     0.375000000000     0.875000000000     0          
T        Si     0.850000000000     0.447225000000     0.776050000000     0          
O        O      0.950000000000     0.250000000000     0.963625000000     0          
O        O      0.950000000000     0.419125000000     0.931800000000     0          
T        Si     0.950000000000     0.447225000000     0.973950000000     0          
T        Si     0.950000000000     0.375000000000     0.903375000000     0          
O        O      0.950000000000     0.330875000000     0.931800000000     0          
T        Si     0.950000000000     0.302775000000     0.973950000000     0          
O        O      0.800000000000     0.434700000000     0.750000000000     0          
O        O      0.900000000000     0.315300000000     0.750000000000     0          
O        O      0.800000000000     0.565300000000     0.000000000000     0          
O        O      0.850000000000     0.500000000000     0.036375000000     0          
O        O      0.850000000000     0.580875000000     0.068200000000     0          
O        O      0.900000000000     0.625000000000     0.125000000000     0          
T        Si     0.850000000000     0.552775000000     0.026050000000     0          
T        Si     0.850000000000     0.625000000000     0.096625000000     0          
O        O      0.900000000000     0.684700000000     0.000000000000     0          
O        O      0.850000000000     0.669125000000     0.068200000000     0          
O        O      0.800000000000     0.625000000000     0.125000000000     0          
T        Si     0.850000000000     0.697225000000     0.026050000000     0          
O        O      0.950000000000     0.500000000000     0.213625000000     0          
O        O      0.950000000000     0.669125000000     0.181800000000     0          
T        Si     0.950000000000     0.697225000000     0.223950000000     0          
T        Si     0.950000000000     0.625000000000     0.153375000000     0          
O        O      0.950000000000     0.580875000000     0.181800000000     0          
T        Si     0.950000000000     0.552775000000     0.223950000000     0          
O        O      0.800000000000     0.684700000000     0.000000000000     0          
O        O      0.900000000000     0.565300000000     0.000000000000     0          
O        O      0.800000000000     0.565300000000     0.250000000000     0          
O        O      0.850000000000     0.500000000000     0.286375000000     0          
O        O      0.850000000000     0.580875000000     0.318200000000     0          
O        O      0.900000000000     0.625000000000     0.375000000000     0          
T        Si     0.850000000000     0.552775000000     0.276050000000     0          
T        Si     0.850000000000     0.625000000000     0.346625000000     0          
O        O      0.900000000000     0.684700000000     0.250000000000     0          
O        O      0.850000000000     0.669125000000     0.318200000000     0          
O        O      0.800000000000     0.625000000000     0.375000000000     0          
T        Si     0.850000000000     0.697225000000     0.276050000000     0          
O        O      0.950000000000     0.500000000000     0.463625000000     0          
O        O      0.950000000000     0.669125000000     0.431800000000     0          
T        Si     0.950000000000     0.697225000000     0.473950000000     0          
T        Si     0.950000000000     0.625000000000     0.403375000000     0          
O        O      0.950000000000     0.580875000000     0.431800000000     0          
T        Si     0.950000000000     0.552775000000     0.473950000000     0          
O        O      0.800000000000     0.684700000000     0.250000000000     0          
O        O      0.900000000000     0.565300000000     0.250000000000     0          
O        O      0.800000000000     0.565300000000     0.500000000000     0          
O        O      0.850000000000     0.500000000000     0.536375000000     0          
O        O      0.850000000000     0.580875000000     0.568200000000     0          
O        O      0.900000000000     0.625000000000     0.625000000000     0          
T        Si     0.850000000000     0.552775000000     0.526050000000     0          
T        Si     0.850000000000     0.625000000000     0.596625000000     0          
O        O      0.900000000000     0.684700000000     0.500000000000     0          
O        O      0.850000000000     0.669125000000     0.568200000000     0          
O        O      0.800000000000     0.625000000000     0.625000000000     0          
T        Si     0.850000000000     0.697225000000     0.526050000000     0          
O        O      0.950000000000     0.500000000000     0.713625000000     0          
O        O      0.950000000000     0.669125000000     0.681800000000     0          
T        Si     0.950000000000     0.697225000000     0.723950000000     0          
T        Si     0.950000000000     0.625000000000     0.653375000000     0          
O        O      0.950000000000     0.580875000000     0.681800000000     0          
T        Si     0.950000000000     0.552775000000     0.723950000000     0          
O        O      0.800000000000     0.684700000000     0.500000000000     0          
O        O      0.900000000000     0.565300000000     0.500000000000     0          
O        O      0.800000000000     0.565300000000     0.750000000000     0          
O        O      0.850000000000     0.500000000000     0.786375000000     0          
O        O      0.850000000000     0.580875000000     0.818200000000     0          
O        O      0.900000000000     0.625000000000     0.875000000000     0          
T        Si     0.850000000000     0.552775000000     0.776050000000     0          
T        Si     0.850000000000     0.625000000000     0.846625000000     0          
O        O      0.900000000000     0.684700000000     0.750000000000     0          
O        O      0.850000000000     0.669125000000     0.818200000000     0          
O        O      0.800000000000     0.625000000000     0.875000000000     0          
T        Si     0.850000000000     0.697225000000     0.776050000000     0          
O        O      0.950000000000     0.500000000000     0.963625000000     0          
O        O      0.950000000000     0.669125000000     0.931800000000     0          
T        Si     0.950000000000     0.697225000000     0.973950000000     0          
T        Si     0.950000000000     0.625000000000     0.903375000000     0          
O        O      0.950000000000     0.580875000000     0.931800000000     0          
T        Si     0.950000000000     0.552775000000     0.973950000000     0          
O        O      0.800000000000     0.684700000000     0.750000000000     0          
O        O      0.900000000000     0.565300000000     0.750000000000     0          
O        O      0.800000000000     0.815300000000     0.000000000000     0          
O        O      0.850000000000     0.750000000000     0.036375000000     0          
O        O      0.850000000000     0.830875000000     0.068200000000     0          
O        O      0.900000000000     0.875000000000     0.125000000000     0          
T        Si     0.850000000000     0.802775000000     0.026050000000     0          
T        Si     0.850000000000     0.875000000000     0.096625000000     0          
O        O      0.900000000000     0.934700000000     0.000000000000     0          
O        O      0.850000000000     0.919125000000     0.068200000000     0          
O        O      0.800000000000     0.875000000000     0.125000000000     0          
T        Si     0.850000000000     0.947225000000     0.026050000000     0          
O        O      0.950000000000     0.750000000000     0.213625000000     0          
O        O      0.950000000000     0.919125000000     0.181800000000     0          
T        Si     0.950000000000     0.947225000000     0.223950000000     0          
T        Si     0.950000000000     0.875000000000     0.153375000000     0          
O        O      0.950000000000     0.830875000000     0.181800000000     0          
T        Si     0.950000000000     0.802775000000     0.223950000000     0          
O        O      0.800000000000     0.934700000000     0.000000000000     0          
O        O      0.900000000000     0.815300000000     0.000000000000     0          
O        O      0.800000000000     0.815300000000     0.250000000000     0          
O        O      0.850000000000     0.750000000000     0.286375000000     0          
O        O      0.850000000000     0.830875000000     0.318200000000     0          
O        O      0.900000000000     0.875000000000     0.375000000000     0          
T        Si     0.850000000000     0.802775000000     0.276050000000     0          
T        Si     0.850000000000     0.875000000000     0.346625000000     0          
O        O      0.900000000000     0.934700000000     0.250000000000     0          
O        O      0.850000000000     0.919125000000     0.318200000000     0          
O        O      0.800000000000     0.875000000000     0.375000000000     0          
T        Si     0.850000000000     0.947225000000     0.276050000000     0          
O        O      0.950000000000     0.750000000000     0.463625000000     0          
O        O      0.950000000000     0.919125000000     0.431800000000     0          
T        Si     0.950000000000     0.947225000000     0.473950000000     0          
T        Si     0.950000000000     0.875000000000     0.403375000000     0          
O        O      0.950000000000     0.830875000000     0.431800000000     0          
T        Si     0.950000000000     0.802775000000     0.473950000000     0          
O        O      0.800000000000     0.934700000000     0.250000000000     0          
O        O      0.900000000000     0.815300000000     0.250000000000     0          
O        O      0.800000000000     0.815300000000     0.500000000000     0          
O        O      0.850000000000     0.750000000000     0.536375000000     0          
O        O      0.850000000000     0.830875000000     0.568200000000     0          
O        O      0.900000000000     0.875000000000     0.625000000000     0          
T        Si     0.850000000000     0.802775000000     0.526050000000     0          
T        Si     0.850000000000     0.875000000000     0.596625000000     0          
O        O      0.900000000000     0.934700000000     0.500000000000     0          
O        O      0.850000000000     0.919125000000     0.568200000000     0          
O        O      0.800000000000     0.875000000000     0.625000000000     0          
T        Si     0.850000000000     0.947225000000     0.526050000000     0          
O        O      0.950000000000     0.750000000000     0.713625000000     0          
O        O      0.950000000000     0.919125000000     0.681800000000     0          
T        Si     0.950000000000     0.947225000000     0.723950000000     0          
T        Si     0.950000000000     0.875000000000     0.653375000000     0          
O        O      0.950000000000     0.830875000000     0.681800000000     0          
T        Si     0.950000000000     0.802775000000     0.723950000000     0          
O        O      0.800000000000     0.934700000000     0.500000000000     0          
O        O      0.900000000000     0.815300000000     0.500000000000     0          
O        O      0.800000000000     0.815300000000     0.750000000000     0          
O        O      0.850000000000     0.750000000000     0.786375000000     0          
O        O      0.850000000000     0.830875000000     0.818200000000     0          
O        O      0.900000000000     0.875000000000     0.875000000000     0          
T        Si     0.850000000000     0.802775000000     0.776050000000     0          
T        Si     0.850000000000     0.875000000000     0.846625000000     0          
O        O      0.900000000000     0.934700000000     0.750000000000     0          
O        O      0.850000000000     0.919125000000     0.818200000000     0          
O        O      0.800000000000     0.875000000000     0.875000000000     0          
T        Si     0.850000000000     0.947225000000     0.776050000000     0          
O        O      0.950000000000     0.750000000000     0.963625000000     0          
O        O      0.950000000000     0.919125000000     0.931800000000     0          
T        Si     0.950000000000     0.947225000000     0.973950000000     0          
T        Si     0.950000000000     0.875000000000     0.903375000000     0          
O        O      0.950000000000     0.830875000000     0.931800000000     0          
T        Si     0.950000000000     0.802775000000     0.973950000000     0          
O        O      0.800000000000     0.934700000000     0.750000000000     0          
O        O      0.900000000000     0.815300000000     0.750000000000     0          


