data_zeolite

_audit_creation_method RASPA-1.0
_audit_creation_date 2021-6-7
_audit_author_name ''

_cell_length_a    18.506
_cell_length_b    18.506
_cell_length_c    5.268
_cell_angle_alpha 90
_cell_angle_beta  90
_cell_angle_gamma 90
_cell_volume      36082.9

_symmetry_cell_setting          tetragonal
_symmetry_space_group_name_Hall 'P 1'
_symmetry_space_group_name_H-M  'P 1'
_symmetry_Int_Tables_number     1

_symmetry_equiv_pos_as_xyz 'x,y,z'

loop_
_atom_site_label
_atom_site_type_symbol
_atom_site_fract_x
_atom_site_fract_y
_atom_site_fract_z
_atom_site_charge
T        Si     0.136300000000     0.079250000000     0.100000000000     0          
T        Si     0.060450000000     0.000000000000     0.000000000000     0          
T        Si     0.110200000000     0.000000000000     0.100000000000     0          
T        Si     0.420750000000     0.136300000000     0.100000000000     0          
T        Si     0.000000000000     0.060450000000     0.000000000000     0          
T        Si     0.000000000000     0.110200000000     0.100000000000     0          
T        Si     0.363700000000     0.420750000000     0.100000000000     0          
T        Si     0.439550000000     0.000000000000     0.000000000000     0          
T        Si     0.389800000000     0.000000000000     0.100000000000     0          
T        Si     0.079250000000     0.363700000000     0.100000000000     0          
T        Si     0.000000000000     0.439550000000     0.000000000000     0          
T        Si     0.000000000000     0.389800000000     0.100000000000     0          
T        Si     0.136300000000     0.420750000000     0.100000000000     0          
T        Si     0.079250000000     0.136300000000     0.100000000000     0          
T        Si     0.363700000000     0.079250000000     0.100000000000     0          
T        Si     0.420750000000     0.363700000000     0.100000000000     0          
T        Si     0.386300000000     0.329250000000     0.000000000000     0          
T        Si     0.310450000000     0.250000000000     0.100000000000     0          
T        Si     0.360200000000     0.250000000000     0.000000000000     0          
T        Si     0.170750000000     0.386300000000     0.000000000000     0          
T        Si     0.250000000000     0.310450000000     0.100000000000     0          
T        Si     0.250000000000     0.360200000000     0.000000000000     0          
T        Si     0.113700000000     0.170750000000     0.000000000000     0          
T        Si     0.189550000000     0.250000000000     0.100000000000     0          
T        Si     0.139800000000     0.250000000000     0.000000000000     0          
T        Si     0.329250000000     0.113700000000     0.000000000000     0          
T        Si     0.250000000000     0.189550000000     0.100000000000     0          
T        Si     0.250000000000     0.139800000000     0.000000000000     0          
T        Si     0.386300000000     0.170750000000     0.000000000000     0          
T        Si     0.329250000000     0.386300000000     0.000000000000     0          
T        Si     0.113700000000     0.329250000000     0.000000000000     0          
T        Si     0.170750000000     0.113700000000     0.000000000000     0          
T        Si     0.136300000000     0.079250000000     0.300000000000     0          
T        Si     0.060450000000     0.000000000000     0.200000000000     0          
T        Si     0.110200000000     0.000000000000     0.300000000000     0          
T        Si     0.420750000000     0.136300000000     0.300000000000     0          
T        Si     0.000000000000     0.060450000000     0.200000000000     0          
T        Si     0.000000000000     0.110200000000     0.300000000000     0          
T        Si     0.363700000000     0.420750000000     0.300000000000     0          
T        Si     0.439550000000     0.000000000000     0.200000000000     0          
T        Si     0.389800000000     0.000000000000     0.300000000000     0          
T        Si     0.079250000000     0.363700000000     0.300000000000     0          
T        Si     0.000000000000     0.439550000000     0.200000000000     0          
T        Si     0.000000000000     0.389800000000     0.300000000000     0          
T        Si     0.136300000000     0.420750000000     0.300000000000     0          
T        Si     0.079250000000     0.136300000000     0.300000000000     0          
T        Si     0.363700000000     0.079250000000     0.300000000000     0          
T        Si     0.420750000000     0.363700000000     0.300000000000     0          
T        Si     0.386300000000     0.329250000000     0.200000000000     0          
T        Si     0.310450000000     0.250000000000     0.300000000000     0          
T        Si     0.360200000000     0.250000000000     0.200000000000     0          
T        Si     0.170750000000     0.386300000000     0.200000000000     0          
T        Si     0.250000000000     0.310450000000     0.300000000000     0          
T        Si     0.250000000000     0.360200000000     0.200000000000     0          
T        Si     0.113700000000     0.170750000000     0.200000000000     0          
T        Si     0.189550000000     0.250000000000     0.300000000000     0          
T        Si     0.139800000000     0.250000000000     0.200000000000     0          
T        Si     0.329250000000     0.113700000000     0.200000000000     0          
T        Si     0.250000000000     0.189550000000     0.300000000000     0          
T        Si     0.250000000000     0.139800000000     0.200000000000     0          
T        Si     0.386300000000     0.170750000000     0.200000000000     0          
T        Si     0.329250000000     0.386300000000     0.200000000000     0          
T        Si     0.113700000000     0.329250000000     0.200000000000     0          
T        Si     0.170750000000     0.113700000000     0.200000000000     0          
T        Si     0.136300000000     0.079250000000     0.500000000000     0          
T        Si     0.060450000000     0.000000000000     0.400000000000     0          
T        Si     0.110200000000     0.000000000000     0.500000000000     0          
T        Si     0.420750000000     0.136300000000     0.500000000000     0          
T        Si     0.000000000000     0.060450000000     0.400000000000     0          
T        Si     0.000000000000     0.110200000000     0.500000000000     0          
T        Si     0.363700000000     0.420750000000     0.500000000000     0          
T        Si     0.439550000000     0.000000000000     0.400000000000     0          
T        Si     0.389800000000     0.000000000000     0.500000000000     0          
T        Si     0.079250000000     0.363700000000     0.500000000000     0          
T        Si     0.000000000000     0.439550000000     0.400000000000     0          
T        Si     0.000000000000     0.389800000000     0.500000000000     0          
T        Si     0.136300000000     0.420750000000     0.500000000000     0          
T        Si     0.079250000000     0.136300000000     0.500000000000     0          
T        Si     0.363700000000     0.079250000000     0.500000000000     0          
T        Si     0.420750000000     0.363700000000     0.500000000000     0          
T        Si     0.386300000000     0.329250000000     0.400000000000     0          
T        Si     0.310450000000     0.250000000000     0.500000000000     0          
T        Si     0.360200000000     0.250000000000     0.400000000000     0          
T        Si     0.170750000000     0.386300000000     0.400000000000     0          
T        Si     0.250000000000     0.310450000000     0.500000000000     0          
T        Si     0.250000000000     0.360200000000     0.400000000000     0          
T        Si     0.113700000000     0.170750000000     0.400000000000     0          
T        Si     0.189550000000     0.250000000000     0.500000000000     0          
T        Si     0.139800000000     0.250000000000     0.400000000000     0          
T        Si     0.329250000000     0.113700000000     0.400000000000     0          
T        Si     0.250000000000     0.189550000000     0.500000000000     0          
T        Si     0.250000000000     0.139800000000     0.400000000000     0          
T        Si     0.386300000000     0.170750000000     0.400000000000     0          
T        Si     0.329250000000     0.386300000000     0.400000000000     0          
T        Si     0.113700000000     0.329250000000     0.400000000000     0          
T        Si     0.170750000000     0.113700000000     0.400000000000     0          
T        Si     0.136300000000     0.079250000000     0.700000000000     0          
T        Si     0.060450000000     0.000000000000     0.600000000000     0          
T        Si     0.110200000000     0.000000000000     0.700000000000     0          
T        Si     0.420750000000     0.136300000000     0.700000000000     0          
T        Si     0.000000000000     0.060450000000     0.600000000000     0          
T        Si     0.000000000000     0.110200000000     0.700000000000     0          
T        Si     0.363700000000     0.420750000000     0.700000000000     0          
T        Si     0.439550000000     0.000000000000     0.600000000000     0          
T        Si     0.389800000000     0.000000000000     0.700000000000     0          
T        Si     0.079250000000     0.363700000000     0.700000000000     0          
T        Si     0.000000000000     0.439550000000     0.600000000000     0          
T        Si     0.000000000000     0.389800000000     0.700000000000     0          
T        Si     0.136300000000     0.420750000000     0.700000000000     0          
T        Si     0.079250000000     0.136300000000     0.700000000000     0          
T        Si     0.363700000000     0.079250000000     0.700000000000     0          
T        Si     0.420750000000     0.363700000000     0.700000000000     0          
T        Si     0.386300000000     0.329250000000     0.600000000000     0          
T        Si     0.310450000000     0.250000000000     0.700000000000     0          
T        Si     0.360200000000     0.250000000000     0.600000000000     0          
T        Si     0.170750000000     0.386300000000     0.600000000000     0          
T        Si     0.250000000000     0.310450000000     0.700000000000     0          
T        Si     0.250000000000     0.360200000000     0.600000000000     0          
T        Si     0.113700000000     0.170750000000     0.600000000000     0          
T        Si     0.189550000000     0.250000000000     0.700000000000     0          
T        Si     0.139800000000     0.250000000000     0.600000000000     0          
T        Si     0.329250000000     0.113700000000     0.600000000000     0          
T        Si     0.250000000000     0.189550000000     0.700000000000     0          
T        Si     0.250000000000     0.139800000000     0.600000000000     0          
T        Si     0.386300000000     0.170750000000     0.600000000000     0          
T        Si     0.329250000000     0.386300000000     0.600000000000     0          
T        Si     0.113700000000     0.329250000000     0.600000000000     0          
T        Si     0.170750000000     0.113700000000     0.600000000000     0          
T        Si     0.136300000000     0.079250000000     0.900000000000     0          
T        Si     0.060450000000     0.000000000000     0.800000000000     0          
T        Si     0.110200000000     0.000000000000     0.900000000000     0          
T        Si     0.420750000000     0.136300000000     0.900000000000     0          
T        Si     0.000000000000     0.060450000000     0.800000000000     0          
T        Si     0.000000000000     0.110200000000     0.900000000000     0          
T        Si     0.363700000000     0.420750000000     0.900000000000     0          
T        Si     0.439550000000     0.000000000000     0.800000000000     0          
T        Si     0.389800000000     0.000000000000     0.900000000000     0          
T        Si     0.079250000000     0.363700000000     0.900000000000     0          
T        Si     0.000000000000     0.439550000000     0.800000000000     0          
T        Si     0.000000000000     0.389800000000     0.900000000000     0          
T        Si     0.136300000000     0.420750000000     0.900000000000     0          
T        Si     0.079250000000     0.136300000000     0.900000000000     0          
T        Si     0.363700000000     0.079250000000     0.900000000000     0          
T        Si     0.420750000000     0.363700000000     0.900000000000     0          
T        Si     0.386300000000     0.329250000000     0.800000000000     0          
T        Si     0.310450000000     0.250000000000     0.900000000000     0          
T        Si     0.360200000000     0.250000000000     0.800000000000     0          
T        Si     0.170750000000     0.386300000000     0.800000000000     0          
T        Si     0.250000000000     0.310450000000     0.900000000000     0          
T        Si     0.250000000000     0.360200000000     0.800000000000     0          
T        Si     0.113700000000     0.170750000000     0.800000000000     0          
T        Si     0.189550000000     0.250000000000     0.900000000000     0          
T        Si     0.139800000000     0.250000000000     0.800000000000     0          
T        Si     0.329250000000     0.113700000000     0.800000000000     0          
T        Si     0.250000000000     0.189550000000     0.900000000000     0          
T        Si     0.250000000000     0.139800000000     0.800000000000     0          
T        Si     0.386300000000     0.170750000000     0.800000000000     0          
T        Si     0.329250000000     0.386300000000     0.800000000000     0          
T        Si     0.113700000000     0.329250000000     0.800000000000     0          
T        Si     0.170750000000     0.113700000000     0.800000000000     0          
T        Si     0.136300000000     0.579250000000     0.100000000000     0          
T        Si     0.060450000000     0.500000000000     0.000000000000     0          
T        Si     0.110200000000     0.500000000000     0.100000000000     0          
T        Si     0.420750000000     0.636300000000     0.100000000000     0          
T        Si     0.000000000000     0.560450000000     0.000000000000     0          
T        Si     0.000000000000     0.610200000000     0.100000000000     0          
T        Si     0.363700000000     0.920750000000     0.100000000000     0          
T        Si     0.439550000000     0.500000000000     0.000000000000     0          
T        Si     0.389800000000     0.500000000000     0.100000000000     0          
T        Si     0.079250000000     0.863700000000     0.100000000000     0          
T        Si     0.000000000000     0.939550000000     0.000000000000     0          
T        Si     0.000000000000     0.889800000000     0.100000000000     0          
T        Si     0.136300000000     0.920750000000     0.100000000000     0          
T        Si     0.079250000000     0.636300000000     0.100000000000     0          
T        Si     0.363700000000     0.579250000000     0.100000000000     0          
T        Si     0.420750000000     0.863700000000     0.100000000000     0          
T        Si     0.386300000000     0.829250000000     0.000000000000     0          
T        Si     0.310450000000     0.750000000000     0.100000000000     0          
T        Si     0.360200000000     0.750000000000     0.000000000000     0          
T        Si     0.170750000000     0.886300000000     0.000000000000     0          
T        Si     0.250000000000     0.810450000000     0.100000000000     0          
T        Si     0.250000000000     0.860200000000     0.000000000000     0          
T        Si     0.113700000000     0.670750000000     0.000000000000     0          
T        Si     0.189550000000     0.750000000000     0.100000000000     0          
T        Si     0.139800000000     0.750000000000     0.000000000000     0          
T        Si     0.329250000000     0.613700000000     0.000000000000     0          
T        Si     0.250000000000     0.689550000000     0.100000000000     0          
T        Si     0.250000000000     0.639800000000     0.000000000000     0          
T        Si     0.386300000000     0.670750000000     0.000000000000     0          
T        Si     0.329250000000     0.886300000000     0.000000000000     0          
T        Si     0.113700000000     0.829250000000     0.000000000000     0          
T        Si     0.170750000000     0.613700000000     0.000000000000     0          
T        Si     0.136300000000     0.579250000000     0.300000000000     0          
T        Si     0.060450000000     0.500000000000     0.200000000000     0          
T        Si     0.110200000000     0.500000000000     0.300000000000     0          
T        Si     0.420750000000     0.636300000000     0.300000000000     0          
T        Si     0.000000000000     0.560450000000     0.200000000000     0          
T        Si     0.000000000000     0.610200000000     0.300000000000     0          
T        Si     0.363700000000     0.920750000000     0.300000000000     0          
T        Si     0.439550000000     0.500000000000     0.200000000000     0          
T        Si     0.389800000000     0.500000000000     0.300000000000     0          
T        Si     0.079250000000     0.863700000000     0.300000000000     0          
T        Si     0.000000000000     0.939550000000     0.200000000000     0          
T        Si     0.000000000000     0.889800000000     0.300000000000     0          
T        Si     0.136300000000     0.920750000000     0.300000000000     0          
T        Si     0.079250000000     0.636300000000     0.300000000000     0          
T        Si     0.363700000000     0.579250000000     0.300000000000     0          
T        Si     0.420750000000     0.863700000000     0.300000000000     0          
T        Si     0.386300000000     0.829250000000     0.200000000000     0          
T        Si     0.310450000000     0.750000000000     0.300000000000     0          
T        Si     0.360200000000     0.750000000000     0.200000000000     0          
T        Si     0.170750000000     0.886300000000     0.200000000000     0          
T        Si     0.250000000000     0.810450000000     0.300000000000     0          
T        Si     0.250000000000     0.860200000000     0.200000000000     0          
T        Si     0.113700000000     0.670750000000     0.200000000000     0          
T        Si     0.189550000000     0.750000000000     0.300000000000     0          
T        Si     0.139800000000     0.750000000000     0.200000000000     0          
T        Si     0.329250000000     0.613700000000     0.200000000000     0          
T        Si     0.250000000000     0.689550000000     0.300000000000     0          
T        Si     0.250000000000     0.639800000000     0.200000000000     0          
T        Si     0.386300000000     0.670750000000     0.200000000000     0          
T        Si     0.329250000000     0.886300000000     0.200000000000     0          
T        Si     0.113700000000     0.829250000000     0.200000000000     0          
T        Si     0.170750000000     0.613700000000     0.200000000000     0          
T        Si     0.136300000000     0.579250000000     0.500000000000     0          
T        Si     0.060450000000     0.500000000000     0.400000000000     0          
T        Si     0.110200000000     0.500000000000     0.500000000000     0          
T        Si     0.420750000000     0.636300000000     0.500000000000     0          
T        Si     0.000000000000     0.560450000000     0.400000000000     0          
T        Si     0.000000000000     0.610200000000     0.500000000000     0          
T        Si     0.363700000000     0.920750000000     0.500000000000     0          
T        Si     0.439550000000     0.500000000000     0.400000000000     0          
T        Si     0.389800000000     0.500000000000     0.500000000000     0          
T        Si     0.079250000000     0.863700000000     0.500000000000     0          
T        Si     0.000000000000     0.939550000000     0.400000000000     0          
T        Si     0.000000000000     0.889800000000     0.500000000000     0          
T        Si     0.136300000000     0.920750000000     0.500000000000     0          
T        Si     0.079250000000     0.636300000000     0.500000000000     0          
T        Si     0.363700000000     0.579250000000     0.500000000000     0          
T        Si     0.420750000000     0.863700000000     0.500000000000     0          
T        Si     0.386300000000     0.829250000000     0.400000000000     0          
T        Si     0.310450000000     0.750000000000     0.500000000000     0          
T        Si     0.360200000000     0.750000000000     0.400000000000     0          
T        Si     0.170750000000     0.886300000000     0.400000000000     0          
T        Si     0.250000000000     0.810450000000     0.500000000000     0          
T        Si     0.250000000000     0.860200000000     0.400000000000     0          
T        Si     0.113700000000     0.670750000000     0.400000000000     0          
T        Si     0.189550000000     0.750000000000     0.500000000000     0          
T        Si     0.139800000000     0.750000000000     0.400000000000     0          
T        Si     0.329250000000     0.613700000000     0.400000000000     0          
T        Si     0.250000000000     0.689550000000     0.500000000000     0          
T        Si     0.250000000000     0.639800000000     0.400000000000     0          
T        Si     0.386300000000     0.670750000000     0.400000000000     0          
T        Si     0.329250000000     0.886300000000     0.400000000000     0          
T        Si     0.113700000000     0.829250000000     0.400000000000     0          
T        Si     0.170750000000     0.613700000000     0.400000000000     0          
T        Si     0.136300000000     0.579250000000     0.700000000000     0          
T        Si     0.060450000000     0.500000000000     0.600000000000     0          
T        Si     0.110200000000     0.500000000000     0.700000000000     0          
T        Si     0.420750000000     0.636300000000     0.700000000000     0          
T        Si     0.000000000000     0.560450000000     0.600000000000     0          
T        Si     0.000000000000     0.610200000000     0.700000000000     0          
T        Si     0.363700000000     0.920750000000     0.700000000000     0          
T        Si     0.439550000000     0.500000000000     0.600000000000     0          
T        Si     0.389800000000     0.500000000000     0.700000000000     0          
T        Si     0.079250000000     0.863700000000     0.700000000000     0          
T        Si     0.000000000000     0.939550000000     0.600000000000     0          
T        Si     0.000000000000     0.889800000000     0.700000000000     0          
T        Si     0.136300000000     0.920750000000     0.700000000000     0          
T        Si     0.079250000000     0.636300000000     0.700000000000     0          
T        Si     0.363700000000     0.579250000000     0.700000000000     0          
T        Si     0.420750000000     0.863700000000     0.700000000000     0          
T        Si     0.386300000000     0.829250000000     0.600000000000     0          
T        Si     0.310450000000     0.750000000000     0.700000000000     0          
T        Si     0.360200000000     0.750000000000     0.600000000000     0          
T        Si     0.170750000000     0.886300000000     0.600000000000     0          
T        Si     0.250000000000     0.810450000000     0.700000000000     0          
T        Si     0.250000000000     0.860200000000     0.600000000000     0          
T        Si     0.113700000000     0.670750000000     0.600000000000     0          
T        Si     0.189550000000     0.750000000000     0.700000000000     0          
T        Si     0.139800000000     0.750000000000     0.600000000000     0          
T        Si     0.329250000000     0.613700000000     0.600000000000     0          
T        Si     0.250000000000     0.689550000000     0.700000000000     0          
T        Si     0.250000000000     0.639800000000     0.600000000000     0          
T        Si     0.386300000000     0.670750000000     0.600000000000     0          
T        Si     0.329250000000     0.886300000000     0.600000000000     0          
T        Si     0.113700000000     0.829250000000     0.600000000000     0          
T        Si     0.170750000000     0.613700000000     0.600000000000     0          
T        Si     0.136300000000     0.579250000000     0.900000000000     0          
T        Si     0.060450000000     0.500000000000     0.800000000000     0          
T        Si     0.110200000000     0.500000000000     0.900000000000     0          
T        Si     0.420750000000     0.636300000000     0.900000000000     0          
T        Si     0.000000000000     0.560450000000     0.800000000000     0          
T        Si     0.000000000000     0.610200000000     0.900000000000     0          
T        Si     0.363700000000     0.920750000000     0.900000000000     0          
T        Si     0.439550000000     0.500000000000     0.800000000000     0          
T        Si     0.389800000000     0.500000000000     0.900000000000     0          
T        Si     0.079250000000     0.863700000000     0.900000000000     0          
T        Si     0.000000000000     0.939550000000     0.800000000000     0          
T        Si     0.000000000000     0.889800000000     0.900000000000     0          
T        Si     0.136300000000     0.920750000000     0.900000000000     0          
T        Si     0.079250000000     0.636300000000     0.900000000000     0          
T        Si     0.363700000000     0.579250000000     0.900000000000     0          
T        Si     0.420750000000     0.863700000000     0.900000000000     0          
T        Si     0.386300000000     0.829250000000     0.800000000000     0          
T        Si     0.310450000000     0.750000000000     0.900000000000     0          
T        Si     0.360200000000     0.750000000000     0.800000000000     0          
T        Si     0.170750000000     0.886300000000     0.800000000000     0          
T        Si     0.250000000000     0.810450000000     0.900000000000     0          
T        Si     0.250000000000     0.860200000000     0.800000000000     0          
T        Si     0.113700000000     0.670750000000     0.800000000000     0          
T        Si     0.189550000000     0.750000000000     0.900000000000     0          
T        Si     0.139800000000     0.750000000000     0.800000000000     0          
T        Si     0.329250000000     0.613700000000     0.800000000000     0          
T        Si     0.250000000000     0.689550000000     0.900000000000     0          
T        Si     0.250000000000     0.639800000000     0.800000000000     0          
T        Si     0.386300000000     0.670750000000     0.800000000000     0          
T        Si     0.329250000000     0.886300000000     0.800000000000     0          
T        Si     0.113700000000     0.829250000000     0.800000000000     0          
T        Si     0.170750000000     0.613700000000     0.800000000000     0          
T        Si     0.636300000000     0.079250000000     0.100000000000     0          
T        Si     0.560450000000     0.000000000000     0.000000000000     0          
T        Si     0.610200000000     0.000000000000     0.100000000000     0          
T        Si     0.920750000000     0.136300000000     0.100000000000     0          
T        Si     0.500000000000     0.060450000000     0.000000000000     0          
T        Si     0.500000000000     0.110200000000     0.100000000000     0          
T        Si     0.863700000000     0.420750000000     0.100000000000     0          
T        Si     0.939550000000     0.000000000000     0.000000000000     0          
T        Si     0.889800000000     0.000000000000     0.100000000000     0          
T        Si     0.579250000000     0.363700000000     0.100000000000     0          
T        Si     0.500000000000     0.439550000000     0.000000000000     0          
T        Si     0.500000000000     0.389800000000     0.100000000000     0          
T        Si     0.636300000000     0.420750000000     0.100000000000     0          
T        Si     0.579250000000     0.136300000000     0.100000000000     0          
T        Si     0.863700000000     0.079250000000     0.100000000000     0          
T        Si     0.920750000000     0.363700000000     0.100000000000     0          
T        Si     0.886300000000     0.329250000000     0.000000000000     0          
T        Si     0.810450000000     0.250000000000     0.100000000000     0          
T        Si     0.860200000000     0.250000000000     0.000000000000     0          
T        Si     0.670750000000     0.386300000000     0.000000000000     0          
T        Si     0.750000000000     0.310450000000     0.100000000000     0          
T        Si     0.750000000000     0.360200000000     0.000000000000     0          
T        Si     0.613700000000     0.170750000000     0.000000000000     0          
T        Si     0.689550000000     0.250000000000     0.100000000000     0          
T        Si     0.639800000000     0.250000000000     0.000000000000     0          
T        Si     0.829250000000     0.113700000000     0.000000000000     0          
T        Si     0.750000000000     0.189550000000     0.100000000000     0          
T        Si     0.750000000000     0.139800000000     0.000000000000     0          
T        Si     0.886300000000     0.170750000000     0.000000000000     0          
T        Si     0.829250000000     0.386300000000     0.000000000000     0          
T        Si     0.613700000000     0.329250000000     0.000000000000     0          
T        Si     0.670750000000     0.113700000000     0.000000000000     0          
T        Si     0.636300000000     0.079250000000     0.300000000000     0          
T        Si     0.560450000000     0.000000000000     0.200000000000     0          
T        Si     0.610200000000     0.000000000000     0.300000000000     0          
T        Si     0.920750000000     0.136300000000     0.300000000000     0          
T        Si     0.500000000000     0.060450000000     0.200000000000     0          
T        Si     0.500000000000     0.110200000000     0.300000000000     0          
T        Si     0.863700000000     0.420750000000     0.300000000000     0          
T        Si     0.939550000000     0.000000000000     0.200000000000     0          
T        Si     0.889800000000     0.000000000000     0.300000000000     0          
T        Si     0.579250000000     0.363700000000     0.300000000000     0          
T        Si     0.500000000000     0.439550000000     0.200000000000     0          
T        Si     0.500000000000     0.389800000000     0.300000000000     0          
T        Si     0.636300000000     0.420750000000     0.300000000000     0          
T        Si     0.579250000000     0.136300000000     0.300000000000     0          
T        Si     0.863700000000     0.079250000000     0.300000000000     0          
T        Si     0.920750000000     0.363700000000     0.300000000000     0          
T        Si     0.886300000000     0.329250000000     0.200000000000     0          
T        Si     0.810450000000     0.250000000000     0.300000000000     0          
T        Si     0.860200000000     0.250000000000     0.200000000000     0          
T        Si     0.670750000000     0.386300000000     0.200000000000     0          
T        Si     0.750000000000     0.310450000000     0.300000000000     0          
T        Si     0.750000000000     0.360200000000     0.200000000000     0          
T        Si     0.613700000000     0.170750000000     0.200000000000     0          
T        Si     0.689550000000     0.250000000000     0.300000000000     0          
T        Si     0.639800000000     0.250000000000     0.200000000000     0          
T        Si     0.829250000000     0.113700000000     0.200000000000     0          
T        Si     0.750000000000     0.189550000000     0.300000000000     0          
T        Si     0.750000000000     0.139800000000     0.200000000000     0          
T        Si     0.886300000000     0.170750000000     0.200000000000     0          
T        Si     0.829250000000     0.386300000000     0.200000000000     0          
T        Si     0.613700000000     0.329250000000     0.200000000000     0          
T        Si     0.670750000000     0.113700000000     0.200000000000     0          
T        Si     0.636300000000     0.079250000000     0.500000000000     0          
T        Si     0.560450000000     0.000000000000     0.400000000000     0          
T        Si     0.610200000000     0.000000000000     0.500000000000     0          
T        Si     0.920750000000     0.136300000000     0.500000000000     0          
T        Si     0.500000000000     0.060450000000     0.400000000000     0          
T        Si     0.500000000000     0.110200000000     0.500000000000     0          
T        Si     0.863700000000     0.420750000000     0.500000000000     0          
T        Si     0.939550000000     0.000000000000     0.400000000000     0          
T        Si     0.889800000000     0.000000000000     0.500000000000     0          
T        Si     0.579250000000     0.363700000000     0.500000000000     0          
T        Si     0.500000000000     0.439550000000     0.400000000000     0          
T        Si     0.500000000000     0.389800000000     0.500000000000     0          
T        Si     0.636300000000     0.420750000000     0.500000000000     0          
T        Si     0.579250000000     0.136300000000     0.500000000000     0          
T        Si     0.863700000000     0.079250000000     0.500000000000     0          
T        Si     0.920750000000     0.363700000000     0.500000000000     0          
T        Si     0.886300000000     0.329250000000     0.400000000000     0          
T        Si     0.810450000000     0.250000000000     0.500000000000     0          
T        Si     0.860200000000     0.250000000000     0.400000000000     0          
T        Si     0.670750000000     0.386300000000     0.400000000000     0          
T        Si     0.750000000000     0.310450000000     0.500000000000     0          
T        Si     0.750000000000     0.360200000000     0.400000000000     0          
T        Si     0.613700000000     0.170750000000     0.400000000000     0          
T        Si     0.689550000000     0.250000000000     0.500000000000     0          
T        Si     0.639800000000     0.250000000000     0.400000000000     0          
T        Si     0.829250000000     0.113700000000     0.400000000000     0          
T        Si     0.750000000000     0.189550000000     0.500000000000     0          
T        Si     0.750000000000     0.139800000000     0.400000000000     0          
T        Si     0.886300000000     0.170750000000     0.400000000000     0          
T        Si     0.829250000000     0.386300000000     0.400000000000     0          
T        Si     0.613700000000     0.329250000000     0.400000000000     0          
T        Si     0.670750000000     0.113700000000     0.400000000000     0          
T        Si     0.636300000000     0.079250000000     0.700000000000     0          
T        Si     0.560450000000     0.000000000000     0.600000000000     0          
T        Si     0.610200000000     0.000000000000     0.700000000000     0          
T        Si     0.920750000000     0.136300000000     0.700000000000     0          
T        Si     0.500000000000     0.060450000000     0.600000000000     0          
T        Si     0.500000000000     0.110200000000     0.700000000000     0          
T        Si     0.863700000000     0.420750000000     0.700000000000     0          
T        Si     0.939550000000     0.000000000000     0.600000000000     0          
T        Si     0.889800000000     0.000000000000     0.700000000000     0          
T        Si     0.579250000000     0.363700000000     0.700000000000     0          
T        Si     0.500000000000     0.439550000000     0.600000000000     0          
T        Si     0.500000000000     0.389800000000     0.700000000000     0          
T        Si     0.636300000000     0.420750000000     0.700000000000     0          
T        Si     0.579250000000     0.136300000000     0.700000000000     0          
T        Si     0.863700000000     0.079250000000     0.700000000000     0          
T        Si     0.920750000000     0.363700000000     0.700000000000     0          
T        Si     0.886300000000     0.329250000000     0.600000000000     0          
T        Si     0.810450000000     0.250000000000     0.700000000000     0          
T        Si     0.860200000000     0.250000000000     0.600000000000     0          
T        Si     0.670750000000     0.386300000000     0.600000000000     0          
T        Si     0.750000000000     0.310450000000     0.700000000000     0          
T        Si     0.750000000000     0.360200000000     0.600000000000     0          
T        Si     0.613700000000     0.170750000000     0.600000000000     0          
T        Si     0.689550000000     0.250000000000     0.700000000000     0          
T        Si     0.639800000000     0.250000000000     0.600000000000     0          
T        Si     0.829250000000     0.113700000000     0.600000000000     0          
T        Si     0.750000000000     0.189550000000     0.700000000000     0          
T        Si     0.750000000000     0.139800000000     0.600000000000     0          
T        Si     0.886300000000     0.170750000000     0.600000000000     0          
T        Si     0.829250000000     0.386300000000     0.600000000000     0          
T        Si     0.613700000000     0.329250000000     0.600000000000     0          
T        Si     0.670750000000     0.113700000000     0.600000000000     0          
T        Si     0.636300000000     0.079250000000     0.900000000000     0          
T        Si     0.560450000000     0.000000000000     0.800000000000     0          
T        Si     0.610200000000     0.000000000000     0.900000000000     0          
T        Si     0.920750000000     0.136300000000     0.900000000000     0          
T        Si     0.500000000000     0.060450000000     0.800000000000     0          
T        Si     0.500000000000     0.110200000000     0.900000000000     0          
T        Si     0.863700000000     0.420750000000     0.900000000000     0          
T        Si     0.939550000000     0.000000000000     0.800000000000     0          
T        Si     0.889800000000     0.000000000000     0.900000000000     0          
T        Si     0.579250000000     0.363700000000     0.900000000000     0          
T        Si     0.500000000000     0.439550000000     0.800000000000     0          
T        Si     0.500000000000     0.389800000000     0.900000000000     0          
T        Si     0.636300000000     0.420750000000     0.900000000000     0          
T        Si     0.579250000000     0.136300000000     0.900000000000     0          
T        Si     0.863700000000     0.079250000000     0.900000000000     0          
T        Si     0.920750000000     0.363700000000     0.900000000000     0          
T        Si     0.886300000000     0.329250000000     0.800000000000     0          
T        Si     0.810450000000     0.250000000000     0.900000000000     0          
T        Si     0.860200000000     0.250000000000     0.800000000000     0          
T        Si     0.670750000000     0.386300000000     0.800000000000     0          
T        Si     0.750000000000     0.310450000000     0.900000000000     0          
T        Si     0.750000000000     0.360200000000     0.800000000000     0          
T        Si     0.613700000000     0.170750000000     0.800000000000     0          
T        Si     0.689550000000     0.250000000000     0.900000000000     0          
T        Si     0.639800000000     0.250000000000     0.800000000000     0          
T        Si     0.829250000000     0.113700000000     0.800000000000     0          
T        Si     0.750000000000     0.189550000000     0.900000000000     0          
T        Si     0.750000000000     0.139800000000     0.800000000000     0          
T        Si     0.886300000000     0.170750000000     0.800000000000     0          
T        Si     0.829250000000     0.386300000000     0.800000000000     0          
T        Si     0.613700000000     0.329250000000     0.800000000000     0          
T        Si     0.670750000000     0.113700000000     0.800000000000     0          
T        Si     0.636300000000     0.579250000000     0.100000000000     0          
T        Si     0.560450000000     0.500000000000     0.000000000000     0          
T        Si     0.610200000000     0.500000000000     0.100000000000     0          
T        Si     0.920750000000     0.636300000000     0.100000000000     0          
T        Si     0.500000000000     0.560450000000     0.000000000000     0          
T        Si     0.500000000000     0.610200000000     0.100000000000     0          
T        Si     0.863700000000     0.920750000000     0.100000000000     0          
T        Si     0.939550000000     0.500000000000     0.000000000000     0          
T        Si     0.889800000000     0.500000000000     0.100000000000     0          
T        Si     0.579250000000     0.863700000000     0.100000000000     0          
T        Si     0.500000000000     0.939550000000     0.000000000000     0          
T        Si     0.500000000000     0.889800000000     0.100000000000     0          
T        Si     0.636300000000     0.920750000000     0.100000000000     0          
T        Si     0.579250000000     0.636300000000     0.100000000000     0          
T        Si     0.863700000000     0.579250000000     0.100000000000     0          
T        Si     0.920750000000     0.863700000000     0.100000000000     0          
T        Si     0.886300000000     0.829250000000     0.000000000000     0          
T        Si     0.810450000000     0.750000000000     0.100000000000     0          
T        Si     0.860200000000     0.750000000000     0.000000000000     0          
T        Si     0.670750000000     0.886300000000     0.000000000000     0          
T        Si     0.750000000000     0.810450000000     0.100000000000     0          
T        Si     0.750000000000     0.860200000000     0.000000000000     0          
T        Si     0.613700000000     0.670750000000     0.000000000000     0          
T        Si     0.689550000000     0.750000000000     0.100000000000     0          
T        Si     0.639800000000     0.750000000000     0.000000000000     0          
T        Si     0.829250000000     0.613700000000     0.000000000000     0          
T        Si     0.750000000000     0.689550000000     0.100000000000     0          
T        Si     0.750000000000     0.639800000000     0.000000000000     0          
T        Si     0.886300000000     0.670750000000     0.000000000000     0          
T        Si     0.829250000000     0.886300000000     0.000000000000     0          
T        Si     0.613700000000     0.829250000000     0.000000000000     0          
T        Si     0.670750000000     0.613700000000     0.000000000000     0          
T        Si     0.636300000000     0.579250000000     0.300000000000     0          
T        Si     0.560450000000     0.500000000000     0.200000000000     0          
T        Si     0.610200000000     0.500000000000     0.300000000000     0          
T        Si     0.920750000000     0.636300000000     0.300000000000     0          
T        Si     0.500000000000     0.560450000000     0.200000000000     0          
T        Si     0.500000000000     0.610200000000     0.300000000000     0          
T        Si     0.863700000000     0.920750000000     0.300000000000     0          
T        Si     0.939550000000     0.500000000000     0.200000000000     0          
T        Si     0.889800000000     0.500000000000     0.300000000000     0          
T        Si     0.579250000000     0.863700000000     0.300000000000     0          
T        Si     0.500000000000     0.939550000000     0.200000000000     0          
T        Si     0.500000000000     0.889800000000     0.300000000000     0          
T        Si     0.636300000000     0.920750000000     0.300000000000     0          
T        Si     0.579250000000     0.636300000000     0.300000000000     0          
T        Si     0.863700000000     0.579250000000     0.300000000000     0          
T        Si     0.920750000000     0.863700000000     0.300000000000     0          
T        Si     0.886300000000     0.829250000000     0.200000000000     0          
T        Si     0.810450000000     0.750000000000     0.300000000000     0          
T        Si     0.860200000000     0.750000000000     0.200000000000     0          
T        Si     0.670750000000     0.886300000000     0.200000000000     0          
T        Si     0.750000000000     0.810450000000     0.300000000000     0          
T        Si     0.750000000000     0.860200000000     0.200000000000     0          
T        Si     0.613700000000     0.670750000000     0.200000000000     0          
T        Si     0.689550000000     0.750000000000     0.300000000000     0          
T        Si     0.639800000000     0.750000000000     0.200000000000     0          
T        Si     0.829250000000     0.613700000000     0.200000000000     0          
T        Si     0.750000000000     0.689550000000     0.300000000000     0          
T        Si     0.750000000000     0.639800000000     0.200000000000     0          
T        Si     0.886300000000     0.670750000000     0.200000000000     0          
T        Si     0.829250000000     0.886300000000     0.200000000000     0          
T        Si     0.613700000000     0.829250000000     0.200000000000     0          
T        Si     0.670750000000     0.613700000000     0.200000000000     0          
T        Si     0.636300000000     0.579250000000     0.500000000000     0          
T        Si     0.560450000000     0.500000000000     0.400000000000     0          
T        Si     0.610200000000     0.500000000000     0.500000000000     0          
T        Si     0.920750000000     0.636300000000     0.500000000000     0          
T        Si     0.500000000000     0.560450000000     0.400000000000     0          
T        Si     0.500000000000     0.610200000000     0.500000000000     0          
T        Si     0.863700000000     0.920750000000     0.500000000000     0          
T        Si     0.939550000000     0.500000000000     0.400000000000     0          
T        Si     0.889800000000     0.500000000000     0.500000000000     0          
T        Si     0.579250000000     0.863700000000     0.500000000000     0          
T        Si     0.500000000000     0.939550000000     0.400000000000     0          
T        Si     0.500000000000     0.889800000000     0.500000000000     0          
T        Si     0.636300000000     0.920750000000     0.500000000000     0          
T        Si     0.579250000000     0.636300000000     0.500000000000     0          
T        Si     0.863700000000     0.579250000000     0.500000000000     0          
T        Si     0.920750000000     0.863700000000     0.500000000000     0          
T        Si     0.886300000000     0.829250000000     0.400000000000     0          
T        Si     0.810450000000     0.750000000000     0.500000000000     0          
T        Si     0.860200000000     0.750000000000     0.400000000000     0          
T        Si     0.670750000000     0.886300000000     0.400000000000     0          
T        Si     0.750000000000     0.810450000000     0.500000000000     0          
T        Si     0.750000000000     0.860200000000     0.400000000000     0          
T        Si     0.613700000000     0.670750000000     0.400000000000     0          
T        Si     0.689550000000     0.750000000000     0.500000000000     0          
T        Si     0.639800000000     0.750000000000     0.400000000000     0          
T        Si     0.829250000000     0.613700000000     0.400000000000     0          
T        Si     0.750000000000     0.689550000000     0.500000000000     0          
T        Si     0.750000000000     0.639800000000     0.400000000000     0          
T        Si     0.886300000000     0.670750000000     0.400000000000     0          
T        Si     0.829250000000     0.886300000000     0.400000000000     0          
T        Si     0.613700000000     0.829250000000     0.400000000000     0          
T        Si     0.670750000000     0.613700000000     0.400000000000     0          
T        Si     0.636300000000     0.579250000000     0.700000000000     0          
T        Si     0.560450000000     0.500000000000     0.600000000000     0          
T        Si     0.610200000000     0.500000000000     0.700000000000     0          
T        Si     0.920750000000     0.636300000000     0.700000000000     0          
T        Si     0.500000000000     0.560450000000     0.600000000000     0          
T        Si     0.500000000000     0.610200000000     0.700000000000     0          
T        Si     0.863700000000     0.920750000000     0.700000000000     0          
T        Si     0.939550000000     0.500000000000     0.600000000000     0          
T        Si     0.889800000000     0.500000000000     0.700000000000     0          
T        Si     0.579250000000     0.863700000000     0.700000000000     0          
T        Si     0.500000000000     0.939550000000     0.600000000000     0          
T        Si     0.500000000000     0.889800000000     0.700000000000     0          
T        Si     0.636300000000     0.920750000000     0.700000000000     0          
T        Si     0.579250000000     0.636300000000     0.700000000000     0          
T        Si     0.863700000000     0.579250000000     0.700000000000     0          
T        Si     0.920750000000     0.863700000000     0.700000000000     0          
T        Si     0.886300000000     0.829250000000     0.600000000000     0          
T        Si     0.810450000000     0.750000000000     0.700000000000     0          
T        Si     0.860200000000     0.750000000000     0.600000000000     0          
T        Si     0.670750000000     0.886300000000     0.600000000000     0          
T        Si     0.750000000000     0.810450000000     0.700000000000     0          
T        Si     0.750000000000     0.860200000000     0.600000000000     0          
T        Si     0.613700000000     0.670750000000     0.600000000000     0          
T        Si     0.689550000000     0.750000000000     0.700000000000     0          
T        Si     0.639800000000     0.750000000000     0.600000000000     0          
T        Si     0.829250000000     0.613700000000     0.600000000000     0          
T        Si     0.750000000000     0.689550000000     0.700000000000     0          
T        Si     0.750000000000     0.639800000000     0.600000000000     0          
T        Si     0.886300000000     0.670750000000     0.600000000000     0          
T        Si     0.829250000000     0.886300000000     0.600000000000     0          
T        Si     0.613700000000     0.829250000000     0.600000000000     0          
T        Si     0.670750000000     0.613700000000     0.600000000000     0          
T        Si     0.636300000000     0.579250000000     0.900000000000     0          
T        Si     0.560450000000     0.500000000000     0.800000000000     0          
T        Si     0.610200000000     0.500000000000     0.900000000000     0          
T        Si     0.920750000000     0.636300000000     0.900000000000     0          
T        Si     0.500000000000     0.560450000000     0.800000000000     0          
T        Si     0.500000000000     0.610200000000     0.900000000000     0          
T        Si     0.863700000000     0.920750000000     0.900000000000     0          
T        Si     0.939550000000     0.500000000000     0.800000000000     0          
T        Si     0.889800000000     0.500000000000     0.900000000000     0          
T        Si     0.579250000000     0.863700000000     0.900000000000     0          
T        Si     0.500000000000     0.939550000000     0.800000000000     0          
T        Si     0.500000000000     0.889800000000     0.900000000000     0          
T        Si     0.636300000000     0.920750000000     0.900000000000     0          
T        Si     0.579250000000     0.636300000000     0.900000000000     0          
T        Si     0.863700000000     0.579250000000     0.900000000000     0          
T        Si     0.920750000000     0.863700000000     0.900000000000     0          
T        Si     0.886300000000     0.829250000000     0.800000000000     0          
T        Si     0.810450000000     0.750000000000     0.900000000000     0          
T        Si     0.860200000000     0.750000000000     0.800000000000     0          
T        Si     0.670750000000     0.886300000000     0.800000000000     0          
T        Si     0.750000000000     0.810450000000     0.900000000000     0          
T        Si     0.750000000000     0.860200000000     0.800000000000     0          
T        Si     0.613700000000     0.670750000000     0.800000000000     0          
T        Si     0.689550000000     0.750000000000     0.900000000000     0          
T        Si     0.639800000000     0.750000000000     0.800000000000     0          
T        Si     0.829250000000     0.613700000000     0.800000000000     0          
T        Si     0.750000000000     0.689550000000     0.900000000000     0          
T        Si     0.750000000000     0.639800000000     0.800000000000     0          
T        Si     0.886300000000     0.670750000000     0.800000000000     0          
T        Si     0.829250000000     0.886300000000     0.800000000000     0          
T        Si     0.613700000000     0.829250000000     0.800000000000     0          
T        Si     0.670750000000     0.613700000000     0.800000000000     0          
O        O      0.096150000000     0.096150000000     0.100000000000     0          
O        O      0.157400000000     0.092600000000     0.150000000000     0          
O        O      0.134900000000     0.035750000000     0.100000000000     0          
O        O      0.085300000000     0.000000000000     0.050000000000     0          
O        O      0.035550000000     0.035550000000     0.000000000000     0          
O        O      0.403850000000     0.096150000000     0.100000000000     0          
O        O      0.407400000000     0.157400000000     0.150000000000     0          
O        O      0.464250000000     0.134900000000     0.100000000000     0          
O        O      0.000000000000     0.085300000000     0.050000000000     0          
O        O      0.464450000000     0.035550000000     0.000000000000     0          
O        O      0.403850000000     0.403850000000     0.100000000000     0          
O        O      0.342600000000     0.407400000000     0.150000000000     0          
O        O      0.365100000000     0.464250000000     0.100000000000     0          
O        O      0.414700000000     0.000000000000     0.050000000000     0          
O        O      0.464450000000     0.464450000000     0.000000000000     0          
O        O      0.096150000000     0.403850000000     0.100000000000     0          
O        O      0.092600000000     0.342600000000     0.150000000000     0          
O        O      0.035750000000     0.365100000000     0.100000000000     0          
O        O      0.000000000000     0.414700000000     0.050000000000     0          
O        O      0.035550000000     0.464450000000     0.000000000000     0          
O        O      0.157400000000     0.407400000000     0.050000000000     0          
O        O      0.134900000000     0.464250000000     0.100000000000     0          
O        O      0.085300000000     0.000000000000     0.150000000000     0          
O        O      0.092600000000     0.157400000000     0.050000000000     0          
O        O      0.035750000000     0.134900000000     0.100000000000     0          
O        O      0.000000000000     0.085300000000     0.150000000000     0          
O        O      0.342600000000     0.092600000000     0.050000000000     0          
O        O      0.365100000000     0.035750000000     0.100000000000     0          
O        O      0.414700000000     0.000000000000     0.150000000000     0          
O        O      0.407400000000     0.342600000000     0.050000000000     0          
O        O      0.464250000000     0.365100000000     0.100000000000     0          
O        O      0.000000000000     0.414700000000     0.150000000000     0          
O        O      0.342600000000     0.407400000000     0.050000000000     0          
O        O      0.092600000000     0.342600000000     0.050000000000     0          
O        O      0.157400000000     0.092600000000     0.050000000000     0          
O        O      0.407400000000     0.157400000000     0.050000000000     0          
O        O      0.342600000000     0.092600000000     0.150000000000     0          
O        O      0.407400000000     0.342600000000     0.150000000000     0          
O        O      0.157400000000     0.407400000000     0.150000000000     0          
O        O      0.092600000000     0.157400000000     0.150000000000     0          
O        O      0.346150000000     0.346150000000     0.000000000000     0          
O        O      0.384900000000     0.285750000000     0.000000000000     0          
O        O      0.335300000000     0.250000000000     0.150000000000     0          
O        O      0.285550000000     0.285550000000     0.100000000000     0          
O        O      0.153850000000     0.346150000000     0.000000000000     0          
O        O      0.214250000000     0.384900000000     0.000000000000     0          
O        O      0.250000000000     0.335300000000     0.150000000000     0          
O        O      0.214450000000     0.285550000000     0.100000000000     0          
O        O      0.153850000000     0.153850000000     0.000000000000     0          
O        O      0.115100000000     0.214250000000     0.000000000000     0          
O        O      0.164700000000     0.250000000000     0.150000000000     0          
O        O      0.214450000000     0.214450000000     0.100000000000     0          
O        O      0.346150000000     0.153850000000     0.000000000000     0          
O        O      0.285750000000     0.115100000000     0.000000000000     0          
O        O      0.250000000000     0.164700000000     0.150000000000     0          
O        O      0.285550000000     0.214450000000     0.100000000000     0          
O        O      0.384900000000     0.214250000000     0.000000000000     0          
O        O      0.335300000000     0.250000000000     0.050000000000     0          
O        O      0.285750000000     0.384900000000     0.000000000000     0          
O        O      0.250000000000     0.335300000000     0.050000000000     0          
O        O      0.115100000000     0.285750000000     0.000000000000     0          
O        O      0.164700000000     0.250000000000     0.050000000000     0          
O        O      0.214250000000     0.115100000000     0.000000000000     0          
O        O      0.250000000000     0.164700000000     0.050000000000     0          
O        O      0.096150000000     0.096150000000     0.300000000000     0          
O        O      0.157400000000     0.092600000000     0.350000000000     0          
O        O      0.134900000000     0.035750000000     0.300000000000     0          
O        O      0.085300000000     0.000000000000     0.250000000000     0          
O        O      0.035550000000     0.035550000000     0.200000000000     0          
O        O      0.403850000000     0.096150000000     0.300000000000     0          
O        O      0.407400000000     0.157400000000     0.350000000000     0          
O        O      0.464250000000     0.134900000000     0.300000000000     0          
O        O      0.000000000000     0.085300000000     0.250000000000     0          
O        O      0.464450000000     0.035550000000     0.200000000000     0          
O        O      0.403850000000     0.403850000000     0.300000000000     0          
O        O      0.342600000000     0.407400000000     0.350000000000     0          
O        O      0.365100000000     0.464250000000     0.300000000000     0          
O        O      0.414700000000     0.000000000000     0.250000000000     0          
O        O      0.464450000000     0.464450000000     0.200000000000     0          
O        O      0.096150000000     0.403850000000     0.300000000000     0          
O        O      0.092600000000     0.342600000000     0.350000000000     0          
O        O      0.035750000000     0.365100000000     0.300000000000     0          
O        O      0.000000000000     0.414700000000     0.250000000000     0          
O        O      0.035550000000     0.464450000000     0.200000000000     0          
O        O      0.157400000000     0.407400000000     0.250000000000     0          
O        O      0.134900000000     0.464250000000     0.300000000000     0          
O        O      0.085300000000     0.000000000000     0.350000000000     0          
O        O      0.092600000000     0.157400000000     0.250000000000     0          
O        O      0.035750000000     0.134900000000     0.300000000000     0          
O        O      0.000000000000     0.085300000000     0.350000000000     0          
O        O      0.342600000000     0.092600000000     0.250000000000     0          
O        O      0.365100000000     0.035750000000     0.300000000000     0          
O        O      0.414700000000     0.000000000000     0.350000000000     0          
O        O      0.407400000000     0.342600000000     0.250000000000     0          
O        O      0.464250000000     0.365100000000     0.300000000000     0          
O        O      0.000000000000     0.414700000000     0.350000000000     0          
O        O      0.342600000000     0.407400000000     0.250000000000     0          
O        O      0.092600000000     0.342600000000     0.250000000000     0          
O        O      0.157400000000     0.092600000000     0.250000000000     0          
O        O      0.407400000000     0.157400000000     0.250000000000     0          
O        O      0.342600000000     0.092600000000     0.350000000000     0          
O        O      0.407400000000     0.342600000000     0.350000000000     0          
O        O      0.157400000000     0.407400000000     0.350000000000     0          
O        O      0.092600000000     0.157400000000     0.350000000000     0          
O        O      0.346150000000     0.346150000000     0.200000000000     0          
O        O      0.384900000000     0.285750000000     0.200000000000     0          
O        O      0.335300000000     0.250000000000     0.350000000000     0          
O        O      0.285550000000     0.285550000000     0.300000000000     0          
O        O      0.153850000000     0.346150000000     0.200000000000     0          
O        O      0.214250000000     0.384900000000     0.200000000000     0          
O        O      0.250000000000     0.335300000000     0.350000000000     0          
O        O      0.214450000000     0.285550000000     0.300000000000     0          
O        O      0.153850000000     0.153850000000     0.200000000000     0          
O        O      0.115100000000     0.214250000000     0.200000000000     0          
O        O      0.164700000000     0.250000000000     0.350000000000     0          
O        O      0.214450000000     0.214450000000     0.300000000000     0          
O        O      0.346150000000     0.153850000000     0.200000000000     0          
O        O      0.285750000000     0.115100000000     0.200000000000     0          
O        O      0.250000000000     0.164700000000     0.350000000000     0          
O        O      0.285550000000     0.214450000000     0.300000000000     0          
O        O      0.384900000000     0.214250000000     0.200000000000     0          
O        O      0.335300000000     0.250000000000     0.250000000000     0          
O        O      0.285750000000     0.384900000000     0.200000000000     0          
O        O      0.250000000000     0.335300000000     0.250000000000     0          
O        O      0.115100000000     0.285750000000     0.200000000000     0          
O        O      0.164700000000     0.250000000000     0.250000000000     0          
O        O      0.214250000000     0.115100000000     0.200000000000     0          
O        O      0.250000000000     0.164700000000     0.250000000000     0          
O        O      0.096150000000     0.096150000000     0.500000000000     0          
O        O      0.157400000000     0.092600000000     0.550000000000     0          
O        O      0.134900000000     0.035750000000     0.500000000000     0          
O        O      0.085300000000     0.000000000000     0.450000000000     0          
O        O      0.035550000000     0.035550000000     0.400000000000     0          
O        O      0.403850000000     0.096150000000     0.500000000000     0          
O        O      0.407400000000     0.157400000000     0.550000000000     0          
O        O      0.464250000000     0.134900000000     0.500000000000     0          
O        O      0.000000000000     0.085300000000     0.450000000000     0          
O        O      0.464450000000     0.035550000000     0.400000000000     0          
O        O      0.403850000000     0.403850000000     0.500000000000     0          
O        O      0.342600000000     0.407400000000     0.550000000000     0          
O        O      0.365100000000     0.464250000000     0.500000000000     0          
O        O      0.414700000000     0.000000000000     0.450000000000     0          
O        O      0.464450000000     0.464450000000     0.400000000000     0          
O        O      0.096150000000     0.403850000000     0.500000000000     0          
O        O      0.092600000000     0.342600000000     0.550000000000     0          
O        O      0.035750000000     0.365100000000     0.500000000000     0          
O        O      0.000000000000     0.414700000000     0.450000000000     0          
O        O      0.035550000000     0.464450000000     0.400000000000     0          
O        O      0.157400000000     0.407400000000     0.450000000000     0          
O        O      0.134900000000     0.464250000000     0.500000000000     0          
O        O      0.085300000000     0.000000000000     0.550000000000     0          
O        O      0.092600000000     0.157400000000     0.450000000000     0          
O        O      0.035750000000     0.134900000000     0.500000000000     0          
O        O      0.000000000000     0.085300000000     0.550000000000     0          
O        O      0.342600000000     0.092600000000     0.450000000000     0          
O        O      0.365100000000     0.035750000000     0.500000000000     0          
O        O      0.414700000000     0.000000000000     0.550000000000     0          
O        O      0.407400000000     0.342600000000     0.450000000000     0          
O        O      0.464250000000     0.365100000000     0.500000000000     0          
O        O      0.000000000000     0.414700000000     0.550000000000     0          
O        O      0.342600000000     0.407400000000     0.450000000000     0          
O        O      0.092600000000     0.342600000000     0.450000000000     0          
O        O      0.157400000000     0.092600000000     0.450000000000     0          
O        O      0.407400000000     0.157400000000     0.450000000000     0          
O        O      0.342600000000     0.092600000000     0.550000000000     0          
O        O      0.407400000000     0.342600000000     0.550000000000     0          
O        O      0.157400000000     0.407400000000     0.550000000000     0          
O        O      0.092600000000     0.157400000000     0.550000000000     0          
O        O      0.346150000000     0.346150000000     0.400000000000     0          
O        O      0.384900000000     0.285750000000     0.400000000000     0          
O        O      0.335300000000     0.250000000000     0.550000000000     0          
O        O      0.285550000000     0.285550000000     0.500000000000     0          
O        O      0.153850000000     0.346150000000     0.400000000000     0          
O        O      0.214250000000     0.384900000000     0.400000000000     0          
O        O      0.250000000000     0.335300000000     0.550000000000     0          
O        O      0.214450000000     0.285550000000     0.500000000000     0          
O        O      0.153850000000     0.153850000000     0.400000000000     0          
O        O      0.115100000000     0.214250000000     0.400000000000     0          
O        O      0.164700000000     0.250000000000     0.550000000000     0          
O        O      0.214450000000     0.214450000000     0.500000000000     0          
O        O      0.346150000000     0.153850000000     0.400000000000     0          
O        O      0.285750000000     0.115100000000     0.400000000000     0          
O        O      0.250000000000     0.164700000000     0.550000000000     0          
O        O      0.285550000000     0.214450000000     0.500000000000     0          
O        O      0.384900000000     0.214250000000     0.400000000000     0          
O        O      0.335300000000     0.250000000000     0.450000000000     0          
O        O      0.285750000000     0.384900000000     0.400000000000     0          
O        O      0.250000000000     0.335300000000     0.450000000000     0          
O        O      0.115100000000     0.285750000000     0.400000000000     0          
O        O      0.164700000000     0.250000000000     0.450000000000     0          
O        O      0.214250000000     0.115100000000     0.400000000000     0          
O        O      0.250000000000     0.164700000000     0.450000000000     0          
O        O      0.096150000000     0.096150000000     0.700000000000     0          
O        O      0.157400000000     0.092600000000     0.750000000000     0          
O        O      0.134900000000     0.035750000000     0.700000000000     0          
O        O      0.085300000000     0.000000000000     0.650000000000     0          
O        O      0.035550000000     0.035550000000     0.600000000000     0          
O        O      0.403850000000     0.096150000000     0.700000000000     0          
O        O      0.407400000000     0.157400000000     0.750000000000     0          
O        O      0.464250000000     0.134900000000     0.700000000000     0          
O        O      0.000000000000     0.085300000000     0.650000000000     0          
O        O      0.464450000000     0.035550000000     0.600000000000     0          
O        O      0.403850000000     0.403850000000     0.700000000000     0          
O        O      0.342600000000     0.407400000000     0.750000000000     0          
O        O      0.365100000000     0.464250000000     0.700000000000     0          
O        O      0.414700000000     0.000000000000     0.650000000000     0          
O        O      0.464450000000     0.464450000000     0.600000000000     0          
O        O      0.096150000000     0.403850000000     0.700000000000     0          
O        O      0.092600000000     0.342600000000     0.750000000000     0          
O        O      0.035750000000     0.365100000000     0.700000000000     0          
O        O      0.000000000000     0.414700000000     0.650000000000     0          
O        O      0.035550000000     0.464450000000     0.600000000000     0          
O        O      0.157400000000     0.407400000000     0.650000000000     0          
O        O      0.134900000000     0.464250000000     0.700000000000     0          
O        O      0.085300000000     0.000000000000     0.750000000000     0          
O        O      0.092600000000     0.157400000000     0.650000000000     0          
O        O      0.035750000000     0.134900000000     0.700000000000     0          
O        O      0.000000000000     0.085300000000     0.750000000000     0          
O        O      0.342600000000     0.092600000000     0.650000000000     0          
O        O      0.365100000000     0.035750000000     0.700000000000     0          
O        O      0.414700000000     0.000000000000     0.750000000000     0          
O        O      0.407400000000     0.342600000000     0.650000000000     0          
O        O      0.464250000000     0.365100000000     0.700000000000     0          
O        O      0.000000000000     0.414700000000     0.750000000000     0          
O        O      0.342600000000     0.407400000000     0.650000000000     0          
O        O      0.092600000000     0.342600000000     0.650000000000     0          
O        O      0.157400000000     0.092600000000     0.650000000000     0          
O        O      0.407400000000     0.157400000000     0.650000000000     0          
O        O      0.342600000000     0.092600000000     0.750000000000     0          
O        O      0.407400000000     0.342600000000     0.750000000000     0          
O        O      0.157400000000     0.407400000000     0.750000000000     0          
O        O      0.092600000000     0.157400000000     0.750000000000     0          
O        O      0.346150000000     0.346150000000     0.600000000000     0          
O        O      0.384900000000     0.285750000000     0.600000000000     0          
O        O      0.335300000000     0.250000000000     0.750000000000     0          
O        O      0.285550000000     0.285550000000     0.700000000000     0          
O        O      0.153850000000     0.346150000000     0.600000000000     0          
O        O      0.214250000000     0.384900000000     0.600000000000     0          
O        O      0.250000000000     0.335300000000     0.750000000000     0          
O        O      0.214450000000     0.285550000000     0.700000000000     0          
O        O      0.153850000000     0.153850000000     0.600000000000     0          
O        O      0.115100000000     0.214250000000     0.600000000000     0          
O        O      0.164700000000     0.250000000000     0.750000000000     0          
O        O      0.214450000000     0.214450000000     0.700000000000     0          
O        O      0.346150000000     0.153850000000     0.600000000000     0          
O        O      0.285750000000     0.115100000000     0.600000000000     0          
O        O      0.250000000000     0.164700000000     0.750000000000     0          
O        O      0.285550000000     0.214450000000     0.700000000000     0          
O        O      0.384900000000     0.214250000000     0.600000000000     0          
O        O      0.335300000000     0.250000000000     0.650000000000     0          
O        O      0.285750000000     0.384900000000     0.600000000000     0          
O        O      0.250000000000     0.335300000000     0.650000000000     0          
O        O      0.115100000000     0.285750000000     0.600000000000     0          
O        O      0.164700000000     0.250000000000     0.650000000000     0          
O        O      0.214250000000     0.115100000000     0.600000000000     0          
O        O      0.250000000000     0.164700000000     0.650000000000     0          
O        O      0.096150000000     0.096150000000     0.900000000000     0          
O        O      0.157400000000     0.092600000000     0.950000000000     0          
O        O      0.134900000000     0.035750000000     0.900000000000     0          
O        O      0.085300000000     0.000000000000     0.850000000000     0          
O        O      0.035550000000     0.035550000000     0.800000000000     0          
O        O      0.403850000000     0.096150000000     0.900000000000     0          
O        O      0.407400000000     0.157400000000     0.950000000000     0          
O        O      0.464250000000     0.134900000000     0.900000000000     0          
O        O      0.000000000000     0.085300000000     0.850000000000     0          
O        O      0.464450000000     0.035550000000     0.800000000000     0          
O        O      0.403850000000     0.403850000000     0.900000000000     0          
O        O      0.342600000000     0.407400000000     0.950000000000     0          
O        O      0.365100000000     0.464250000000     0.900000000000     0          
O        O      0.414700000000     0.000000000000     0.850000000000     0          
O        O      0.464450000000     0.464450000000     0.800000000000     0          
O        O      0.096150000000     0.403850000000     0.900000000000     0          
O        O      0.092600000000     0.342600000000     0.950000000000     0          
O        O      0.035750000000     0.365100000000     0.900000000000     0          
O        O      0.000000000000     0.414700000000     0.850000000000     0          
O        O      0.035550000000     0.464450000000     0.800000000000     0          
O        O      0.157400000000     0.407400000000     0.850000000000     0          
O        O      0.134900000000     0.464250000000     0.900000000000     0          
O        O      0.085300000000     0.000000000000     0.950000000000     0          
O        O      0.092600000000     0.157400000000     0.850000000000     0          
O        O      0.035750000000     0.134900000000     0.900000000000     0          
O        O      0.000000000000     0.085300000000     0.950000000000     0          
O        O      0.342600000000     0.092600000000     0.850000000000     0          
O        O      0.365100000000     0.035750000000     0.900000000000     0          
O        O      0.414700000000     0.000000000000     0.950000000000     0          
O        O      0.407400000000     0.342600000000     0.850000000000     0          
O        O      0.464250000000     0.365100000000     0.900000000000     0          
O        O      0.000000000000     0.414700000000     0.950000000000     0          
O        O      0.342600000000     0.407400000000     0.850000000000     0          
O        O      0.092600000000     0.342600000000     0.850000000000     0          
O        O      0.157400000000     0.092600000000     0.850000000000     0          
O        O      0.407400000000     0.157400000000     0.850000000000     0          
O        O      0.342600000000     0.092600000000     0.950000000000     0          
O        O      0.407400000000     0.342600000000     0.950000000000     0          
O        O      0.157400000000     0.407400000000     0.950000000000     0          
O        O      0.092600000000     0.157400000000     0.950000000000     0          
O        O      0.346150000000     0.346150000000     0.800000000000     0          
O        O      0.384900000000     0.285750000000     0.800000000000     0          
O        O      0.335300000000     0.250000000000     0.950000000000     0          
O        O      0.285550000000     0.285550000000     0.900000000000     0          
O        O      0.153850000000     0.346150000000     0.800000000000     0          
O        O      0.214250000000     0.384900000000     0.800000000000     0          
O        O      0.250000000000     0.335300000000     0.950000000000     0          
O        O      0.214450000000     0.285550000000     0.900000000000     0          
O        O      0.153850000000     0.153850000000     0.800000000000     0          
O        O      0.115100000000     0.214250000000     0.800000000000     0          
O        O      0.164700000000     0.250000000000     0.950000000000     0          
O        O      0.214450000000     0.214450000000     0.900000000000     0          
O        O      0.346150000000     0.153850000000     0.800000000000     0          
O        O      0.285750000000     0.115100000000     0.800000000000     0          
O        O      0.250000000000     0.164700000000     0.950000000000     0          
O        O      0.285550000000     0.214450000000     0.900000000000     0          
O        O      0.384900000000     0.214250000000     0.800000000000     0          
O        O      0.335300000000     0.250000000000     0.850000000000     0          
O        O      0.285750000000     0.384900000000     0.800000000000     0          
O        O      0.250000000000     0.335300000000     0.850000000000     0          
O        O      0.115100000000     0.285750000000     0.800000000000     0          
O        O      0.164700000000     0.250000000000     0.850000000000     0          
O        O      0.214250000000     0.115100000000     0.800000000000     0          
O        O      0.250000000000     0.164700000000     0.850000000000     0          
O        O      0.096150000000     0.596150000000     0.100000000000     0          
O        O      0.157400000000     0.592600000000     0.150000000000     0          
O        O      0.134900000000     0.535750000000     0.100000000000     0          
O        O      0.085300000000     0.500000000000     0.050000000000     0          
O        O      0.035550000000     0.535550000000     0.000000000000     0          
O        O      0.403850000000     0.596150000000     0.100000000000     0          
O        O      0.407400000000     0.657400000000     0.150000000000     0          
O        O      0.464250000000     0.634900000000     0.100000000000     0          
O        O      0.000000000000     0.585300000000     0.050000000000     0          
O        O      0.464450000000     0.535550000000     0.000000000000     0          
O        O      0.403850000000     0.903850000000     0.100000000000     0          
O        O      0.342600000000     0.907400000000     0.150000000000     0          
O        O      0.365100000000     0.964250000000     0.100000000000     0          
O        O      0.414700000000     0.500000000000     0.050000000000     0          
O        O      0.464450000000     0.964450000000     0.000000000000     0          
O        O      0.096150000000     0.903850000000     0.100000000000     0          
O        O      0.092600000000     0.842600000000     0.150000000000     0          
O        O      0.035750000000     0.865100000000     0.100000000000     0          
O        O      0.000000000000     0.914700000000     0.050000000000     0          
O        O      0.035550000000     0.964450000000     0.000000000000     0          
O        O      0.157400000000     0.907400000000     0.050000000000     0          
O        O      0.134900000000     0.964250000000     0.100000000000     0          
O        O      0.085300000000     0.500000000000     0.150000000000     0          
O        O      0.092600000000     0.657400000000     0.050000000000     0          
O        O      0.035750000000     0.634900000000     0.100000000000     0          
O        O      0.000000000000     0.585300000000     0.150000000000     0          
O        O      0.342600000000     0.592600000000     0.050000000000     0          
O        O      0.365100000000     0.535750000000     0.100000000000     0          
O        O      0.414700000000     0.500000000000     0.150000000000     0          
O        O      0.407400000000     0.842600000000     0.050000000000     0          
O        O      0.464250000000     0.865100000000     0.100000000000     0          
O        O      0.000000000000     0.914700000000     0.150000000000     0          
O        O      0.342600000000     0.907400000000     0.050000000000     0          
O        O      0.092600000000     0.842600000000     0.050000000000     0          
O        O      0.157400000000     0.592600000000     0.050000000000     0          
O        O      0.407400000000     0.657400000000     0.050000000000     0          
O        O      0.342600000000     0.592600000000     0.150000000000     0          
O        O      0.407400000000     0.842600000000     0.150000000000     0          
O        O      0.157400000000     0.907400000000     0.150000000000     0          
O        O      0.092600000000     0.657400000000     0.150000000000     0          
O        O      0.346150000000     0.846150000000     0.000000000000     0          
O        O      0.384900000000     0.785750000000     0.000000000000     0          
O        O      0.335300000000     0.750000000000     0.150000000000     0          
O        O      0.285550000000     0.785550000000     0.100000000000     0          
O        O      0.153850000000     0.846150000000     0.000000000000     0          
O        O      0.214250000000     0.884900000000     0.000000000000     0          
O        O      0.250000000000     0.835300000000     0.150000000000     0          
O        O      0.214450000000     0.785550000000     0.100000000000     0          
O        O      0.153850000000     0.653850000000     0.000000000000     0          
O        O      0.115100000000     0.714250000000     0.000000000000     0          
O        O      0.164700000000     0.750000000000     0.150000000000     0          
O        O      0.214450000000     0.714450000000     0.100000000000     0          
O        O      0.346150000000     0.653850000000     0.000000000000     0          
O        O      0.285750000000     0.615100000000     0.000000000000     0          
O        O      0.250000000000     0.664700000000     0.150000000000     0          
O        O      0.285550000000     0.714450000000     0.100000000000     0          
O        O      0.384900000000     0.714250000000     0.000000000000     0          
O        O      0.335300000000     0.750000000000     0.050000000000     0          
O        O      0.285750000000     0.884900000000     0.000000000000     0          
O        O      0.250000000000     0.835300000000     0.050000000000     0          
O        O      0.115100000000     0.785750000000     0.000000000000     0          
O        O      0.164700000000     0.750000000000     0.050000000000     0          
O        O      0.214250000000     0.615100000000     0.000000000000     0          
O        O      0.250000000000     0.664700000000     0.050000000000     0          
O        O      0.096150000000     0.596150000000     0.300000000000     0          
O        O      0.157400000000     0.592600000000     0.350000000000     0          
O        O      0.134900000000     0.535750000000     0.300000000000     0          
O        O      0.085300000000     0.500000000000     0.250000000000     0          
O        O      0.035550000000     0.535550000000     0.200000000000     0          
O        O      0.403850000000     0.596150000000     0.300000000000     0          
O        O      0.407400000000     0.657400000000     0.350000000000     0          
O        O      0.464250000000     0.634900000000     0.300000000000     0          
O        O      0.000000000000     0.585300000000     0.250000000000     0          
O        O      0.464450000000     0.535550000000     0.200000000000     0          
O        O      0.403850000000     0.903850000000     0.300000000000     0          
O        O      0.342600000000     0.907400000000     0.350000000000     0          
O        O      0.365100000000     0.964250000000     0.300000000000     0          
O        O      0.414700000000     0.500000000000     0.250000000000     0          
O        O      0.464450000000     0.964450000000     0.200000000000     0          
O        O      0.096150000000     0.903850000000     0.300000000000     0          
O        O      0.092600000000     0.842600000000     0.350000000000     0          
O        O      0.035750000000     0.865100000000     0.300000000000     0          
O        O      0.000000000000     0.914700000000     0.250000000000     0          
O        O      0.035550000000     0.964450000000     0.200000000000     0          
O        O      0.157400000000     0.907400000000     0.250000000000     0          
O        O      0.134900000000     0.964250000000     0.300000000000     0          
O        O      0.085300000000     0.500000000000     0.350000000000     0          
O        O      0.092600000000     0.657400000000     0.250000000000     0          
O        O      0.035750000000     0.634900000000     0.300000000000     0          
O        O      0.000000000000     0.585300000000     0.350000000000     0          
O        O      0.342600000000     0.592600000000     0.250000000000     0          
O        O      0.365100000000     0.535750000000     0.300000000000     0          
O        O      0.414700000000     0.500000000000     0.350000000000     0          
O        O      0.407400000000     0.842600000000     0.250000000000     0          
O        O      0.464250000000     0.865100000000     0.300000000000     0          
O        O      0.000000000000     0.914700000000     0.350000000000     0          
O        O      0.342600000000     0.907400000000     0.250000000000     0          
O        O      0.092600000000     0.842600000000     0.250000000000     0          
O        O      0.157400000000     0.592600000000     0.250000000000     0          
O        O      0.407400000000     0.657400000000     0.250000000000     0          
O        O      0.342600000000     0.592600000000     0.350000000000     0          
O        O      0.407400000000     0.842600000000     0.350000000000     0          
O        O      0.157400000000     0.907400000000     0.350000000000     0          
O        O      0.092600000000     0.657400000000     0.350000000000     0          
O        O      0.346150000000     0.846150000000     0.200000000000     0          
O        O      0.384900000000     0.785750000000     0.200000000000     0          
O        O      0.335300000000     0.750000000000     0.350000000000     0          
O        O      0.285550000000     0.785550000000     0.300000000000     0          
O        O      0.153850000000     0.846150000000     0.200000000000     0          
O        O      0.214250000000     0.884900000000     0.200000000000     0          
O        O      0.250000000000     0.835300000000     0.350000000000     0          
O        O      0.214450000000     0.785550000000     0.300000000000     0          
O        O      0.153850000000     0.653850000000     0.200000000000     0          
O        O      0.115100000000     0.714250000000     0.200000000000     0          
O        O      0.164700000000     0.750000000000     0.350000000000     0          
O        O      0.214450000000     0.714450000000     0.300000000000     0          
O        O      0.346150000000     0.653850000000     0.200000000000     0          
O        O      0.285750000000     0.615100000000     0.200000000000     0          
O        O      0.250000000000     0.664700000000     0.350000000000     0          
O        O      0.285550000000     0.714450000000     0.300000000000     0          
O        O      0.384900000000     0.714250000000     0.200000000000     0          
O        O      0.335300000000     0.750000000000     0.250000000000     0          
O        O      0.285750000000     0.884900000000     0.200000000000     0          
O        O      0.250000000000     0.835300000000     0.250000000000     0          
O        O      0.115100000000     0.785750000000     0.200000000000     0          
O        O      0.164700000000     0.750000000000     0.250000000000     0          
O        O      0.214250000000     0.615100000000     0.200000000000     0          
O        O      0.250000000000     0.664700000000     0.250000000000     0          
O        O      0.096150000000     0.596150000000     0.500000000000     0          
O        O      0.157400000000     0.592600000000     0.550000000000     0          
O        O      0.134900000000     0.535750000000     0.500000000000     0          
O        O      0.085300000000     0.500000000000     0.450000000000     0          
O        O      0.035550000000     0.535550000000     0.400000000000     0          
O        O      0.403850000000     0.596150000000     0.500000000000     0          
O        O      0.407400000000     0.657400000000     0.550000000000     0          
O        O      0.464250000000     0.634900000000     0.500000000000     0          
O        O      0.000000000000     0.585300000000     0.450000000000     0          
O        O      0.464450000000     0.535550000000     0.400000000000     0          
O        O      0.403850000000     0.903850000000     0.500000000000     0          
O        O      0.342600000000     0.907400000000     0.550000000000     0          
O        O      0.365100000000     0.964250000000     0.500000000000     0          
O        O      0.414700000000     0.500000000000     0.450000000000     0          
O        O      0.464450000000     0.964450000000     0.400000000000     0          
O        O      0.096150000000     0.903850000000     0.500000000000     0          
O        O      0.092600000000     0.842600000000     0.550000000000     0          
O        O      0.035750000000     0.865100000000     0.500000000000     0          
O        O      0.000000000000     0.914700000000     0.450000000000     0          
O        O      0.035550000000     0.964450000000     0.400000000000     0          
O        O      0.157400000000     0.907400000000     0.450000000000     0          
O        O      0.134900000000     0.964250000000     0.500000000000     0          
O        O      0.085300000000     0.500000000000     0.550000000000     0          
O        O      0.092600000000     0.657400000000     0.450000000000     0          
O        O      0.035750000000     0.634900000000     0.500000000000     0          
O        O      0.000000000000     0.585300000000     0.550000000000     0          
O        O      0.342600000000     0.592600000000     0.450000000000     0          
O        O      0.365100000000     0.535750000000     0.500000000000     0          
O        O      0.414700000000     0.500000000000     0.550000000000     0          
O        O      0.407400000000     0.842600000000     0.450000000000     0          
O        O      0.464250000000     0.865100000000     0.500000000000     0          
O        O      0.000000000000     0.914700000000     0.550000000000     0          
O        O      0.342600000000     0.907400000000     0.450000000000     0          
O        O      0.092600000000     0.842600000000     0.450000000000     0          
O        O      0.157400000000     0.592600000000     0.450000000000     0          
O        O      0.407400000000     0.657400000000     0.450000000000     0          
O        O      0.342600000000     0.592600000000     0.550000000000     0          
O        O      0.407400000000     0.842600000000     0.550000000000     0          
O        O      0.157400000000     0.907400000000     0.550000000000     0          
O        O      0.092600000000     0.657400000000     0.550000000000     0          
O        O      0.346150000000     0.846150000000     0.400000000000     0          
O        O      0.384900000000     0.785750000000     0.400000000000     0          
O        O      0.335300000000     0.750000000000     0.550000000000     0          
O        O      0.285550000000     0.785550000000     0.500000000000     0          
O        O      0.153850000000     0.846150000000     0.400000000000     0          
O        O      0.214250000000     0.884900000000     0.400000000000     0          
O        O      0.250000000000     0.835300000000     0.550000000000     0          
O        O      0.214450000000     0.785550000000     0.500000000000     0          
O        O      0.153850000000     0.653850000000     0.400000000000     0          
O        O      0.115100000000     0.714250000000     0.400000000000     0          
O        O      0.164700000000     0.750000000000     0.550000000000     0          
O        O      0.214450000000     0.714450000000     0.500000000000     0          
O        O      0.346150000000     0.653850000000     0.400000000000     0          
O        O      0.285750000000     0.615100000000     0.400000000000     0          
O        O      0.250000000000     0.664700000000     0.550000000000     0          
O        O      0.285550000000     0.714450000000     0.500000000000     0          
O        O      0.384900000000     0.714250000000     0.400000000000     0          
O        O      0.335300000000     0.750000000000     0.450000000000     0          
O        O      0.285750000000     0.884900000000     0.400000000000     0          
O        O      0.250000000000     0.835300000000     0.450000000000     0          
O        O      0.115100000000     0.785750000000     0.400000000000     0          
O        O      0.164700000000     0.750000000000     0.450000000000     0          
O        O      0.214250000000     0.615100000000     0.400000000000     0          
O        O      0.250000000000     0.664700000000     0.450000000000     0          
O        O      0.096150000000     0.596150000000     0.700000000000     0          
O        O      0.157400000000     0.592600000000     0.750000000000     0          
O        O      0.134900000000     0.535750000000     0.700000000000     0          
O        O      0.085300000000     0.500000000000     0.650000000000     0          
O        O      0.035550000000     0.535550000000     0.600000000000     0          
O        O      0.403850000000     0.596150000000     0.700000000000     0          
O        O      0.407400000000     0.657400000000     0.750000000000     0          
O        O      0.464250000000     0.634900000000     0.700000000000     0          
O        O      0.000000000000     0.585300000000     0.650000000000     0          
O        O      0.464450000000     0.535550000000     0.600000000000     0          
O        O      0.403850000000     0.903850000000     0.700000000000     0          
O        O      0.342600000000     0.907400000000     0.750000000000     0          
O        O      0.365100000000     0.964250000000     0.700000000000     0          
O        O      0.414700000000     0.500000000000     0.650000000000     0          
O        O      0.464450000000     0.964450000000     0.600000000000     0          
O        O      0.096150000000     0.903850000000     0.700000000000     0          
O        O      0.092600000000     0.842600000000     0.750000000000     0          
O        O      0.035750000000     0.865100000000     0.700000000000     0          
O        O      0.000000000000     0.914700000000     0.650000000000     0          
O        O      0.035550000000     0.964450000000     0.600000000000     0          
O        O      0.157400000000     0.907400000000     0.650000000000     0          
O        O      0.134900000000     0.964250000000     0.700000000000     0          
O        O      0.085300000000     0.500000000000     0.750000000000     0          
O        O      0.092600000000     0.657400000000     0.650000000000     0          
O        O      0.035750000000     0.634900000000     0.700000000000     0          
O        O      0.000000000000     0.585300000000     0.750000000000     0          
O        O      0.342600000000     0.592600000000     0.650000000000     0          
O        O      0.365100000000     0.535750000000     0.700000000000     0          
O        O      0.414700000000     0.500000000000     0.750000000000     0          
O        O      0.407400000000     0.842600000000     0.650000000000     0          
O        O      0.464250000000     0.865100000000     0.700000000000     0          
O        O      0.000000000000     0.914700000000     0.750000000000     0          
O        O      0.342600000000     0.907400000000     0.650000000000     0          
O        O      0.092600000000     0.842600000000     0.650000000000     0          
O        O      0.157400000000     0.592600000000     0.650000000000     0          
O        O      0.407400000000     0.657400000000     0.650000000000     0          
O        O      0.342600000000     0.592600000000     0.750000000000     0          
O        O      0.407400000000     0.842600000000     0.750000000000     0          
O        O      0.157400000000     0.907400000000     0.750000000000     0          
O        O      0.092600000000     0.657400000000     0.750000000000     0          
O        O      0.346150000000     0.846150000000     0.600000000000     0          
O        O      0.384900000000     0.785750000000     0.600000000000     0          
O        O      0.335300000000     0.750000000000     0.750000000000     0          
O        O      0.285550000000     0.785550000000     0.700000000000     0          
O        O      0.153850000000     0.846150000000     0.600000000000     0          
O        O      0.214250000000     0.884900000000     0.600000000000     0          
O        O      0.250000000000     0.835300000000     0.750000000000     0          
O        O      0.214450000000     0.785550000000     0.700000000000     0          
O        O      0.153850000000     0.653850000000     0.600000000000     0          
O        O      0.115100000000     0.714250000000     0.600000000000     0          
O        O      0.164700000000     0.750000000000     0.750000000000     0          
O        O      0.214450000000     0.714450000000     0.700000000000     0          
O        O      0.346150000000     0.653850000000     0.600000000000     0          
O        O      0.285750000000     0.615100000000     0.600000000000     0          
O        O      0.250000000000     0.664700000000     0.750000000000     0          
O        O      0.285550000000     0.714450000000     0.700000000000     0          
O        O      0.384900000000     0.714250000000     0.600000000000     0          
O        O      0.335300000000     0.750000000000     0.650000000000     0          
O        O      0.285750000000     0.884900000000     0.600000000000     0          
O        O      0.250000000000     0.835300000000     0.650000000000     0          
O        O      0.115100000000     0.785750000000     0.600000000000     0          
O        O      0.164700000000     0.750000000000     0.650000000000     0          
O        O      0.214250000000     0.615100000000     0.600000000000     0          
O        O      0.250000000000     0.664700000000     0.650000000000     0          
O        O      0.096150000000     0.596150000000     0.900000000000     0          
O        O      0.157400000000     0.592600000000     0.950000000000     0          
O        O      0.134900000000     0.535750000000     0.900000000000     0          
O        O      0.085300000000     0.500000000000     0.850000000000     0          
O        O      0.035550000000     0.535550000000     0.800000000000     0          
O        O      0.403850000000     0.596150000000     0.900000000000     0          
O        O      0.407400000000     0.657400000000     0.950000000000     0          
O        O      0.464250000000     0.634900000000     0.900000000000     0          
O        O      0.000000000000     0.585300000000     0.850000000000     0          
O        O      0.464450000000     0.535550000000     0.800000000000     0          
O        O      0.403850000000     0.903850000000     0.900000000000     0          
O        O      0.342600000000     0.907400000000     0.950000000000     0          
O        O      0.365100000000     0.964250000000     0.900000000000     0          
O        O      0.414700000000     0.500000000000     0.850000000000     0          
O        O      0.464450000000     0.964450000000     0.800000000000     0          
O        O      0.096150000000     0.903850000000     0.900000000000     0          
O        O      0.092600000000     0.842600000000     0.950000000000     0          
O        O      0.035750000000     0.865100000000     0.900000000000     0          
O        O      0.000000000000     0.914700000000     0.850000000000     0          
O        O      0.035550000000     0.964450000000     0.800000000000     0          
O        O      0.157400000000     0.907400000000     0.850000000000     0          
O        O      0.134900000000     0.964250000000     0.900000000000     0          
O        O      0.085300000000     0.500000000000     0.950000000000     0          
O        O      0.092600000000     0.657400000000     0.850000000000     0          
O        O      0.035750000000     0.634900000000     0.900000000000     0          
O        O      0.000000000000     0.585300000000     0.950000000000     0          
O        O      0.342600000000     0.592600000000     0.850000000000     0          
O        O      0.365100000000     0.535750000000     0.900000000000     0          
O        O      0.414700000000     0.500000000000     0.950000000000     0          
O        O      0.407400000000     0.842600000000     0.850000000000     0          
O        O      0.464250000000     0.865100000000     0.900000000000     0          
O        O      0.000000000000     0.914700000000     0.950000000000     0          
O        O      0.342600000000     0.907400000000     0.850000000000     0          
O        O      0.092600000000     0.842600000000     0.850000000000     0          
O        O      0.157400000000     0.592600000000     0.850000000000     0          
O        O      0.407400000000     0.657400000000     0.850000000000     0          
O        O      0.342600000000     0.592600000000     0.950000000000     0          
O        O      0.407400000000     0.842600000000     0.950000000000     0          
O        O      0.157400000000     0.907400000000     0.950000000000     0          
O        O      0.092600000000     0.657400000000     0.950000000000     0          
O        O      0.346150000000     0.846150000000     0.800000000000     0          
O        O      0.384900000000     0.785750000000     0.800000000000     0          
O        O      0.335300000000     0.750000000000     0.950000000000     0          
O        O      0.285550000000     0.785550000000     0.900000000000     0          
O        O      0.153850000000     0.846150000000     0.800000000000     0          
O        O      0.214250000000     0.884900000000     0.800000000000     0          
O        O      0.250000000000     0.835300000000     0.950000000000     0          
O        O      0.214450000000     0.785550000000     0.900000000000     0          
O        O      0.153850000000     0.653850000000     0.800000000000     0          
O        O      0.115100000000     0.714250000000     0.800000000000     0          
O        O      0.164700000000     0.750000000000     0.950000000000     0          
O        O      0.214450000000     0.714450000000     0.900000000000     0          
O        O      0.346150000000     0.653850000000     0.800000000000     0          
O        O      0.285750000000     0.615100000000     0.800000000000     0          
O        O      0.250000000000     0.664700000000     0.950000000000     0          
O        O      0.285550000000     0.714450000000     0.900000000000     0          
O        O      0.384900000000     0.714250000000     0.800000000000     0          
O        O      0.335300000000     0.750000000000     0.850000000000     0          
O        O      0.285750000000     0.884900000000     0.800000000000     0          
O        O      0.250000000000     0.835300000000     0.850000000000     0          
O        O      0.115100000000     0.785750000000     0.800000000000     0          
O        O      0.164700000000     0.750000000000     0.850000000000     0          
O        O      0.214250000000     0.615100000000     0.800000000000     0          
O        O      0.250000000000     0.664700000000     0.850000000000     0          
O        O      0.596150000000     0.096150000000     0.100000000000     0          
O        O      0.657400000000     0.092600000000     0.150000000000     0          
O        O      0.634900000000     0.035750000000     0.100000000000     0          
O        O      0.585300000000     0.000000000000     0.050000000000     0          
O        O      0.535550000000     0.035550000000     0.000000000000     0          
O        O      0.903850000000     0.096150000000     0.100000000000     0          
O        O      0.907400000000     0.157400000000     0.150000000000     0          
O        O      0.964250000000     0.134900000000     0.100000000000     0          
O        O      0.500000000000     0.085300000000     0.050000000000     0          
O        O      0.964450000000     0.035550000000     0.000000000000     0          
O        O      0.903850000000     0.403850000000     0.100000000000     0          
O        O      0.842600000000     0.407400000000     0.150000000000     0          
O        O      0.865100000000     0.464250000000     0.100000000000     0          
O        O      0.914700000000     0.000000000000     0.050000000000     0          
O        O      0.964450000000     0.464450000000     0.000000000000     0          
O        O      0.596150000000     0.403850000000     0.100000000000     0          
O        O      0.592600000000     0.342600000000     0.150000000000     0          
O        O      0.535750000000     0.365100000000     0.100000000000     0          
O        O      0.500000000000     0.414700000000     0.050000000000     0          
O        O      0.535550000000     0.464450000000     0.000000000000     0          
O        O      0.657400000000     0.407400000000     0.050000000000     0          
O        O      0.634900000000     0.464250000000     0.100000000000     0          
O        O      0.585300000000     0.000000000000     0.150000000000     0          
O        O      0.592600000000     0.157400000000     0.050000000000     0          
O        O      0.535750000000     0.134900000000     0.100000000000     0          
O        O      0.500000000000     0.085300000000     0.150000000000     0          
O        O      0.842600000000     0.092600000000     0.050000000000     0          
O        O      0.865100000000     0.035750000000     0.100000000000     0          
O        O      0.914700000000     0.000000000000     0.150000000000     0          
O        O      0.907400000000     0.342600000000     0.050000000000     0          
O        O      0.964250000000     0.365100000000     0.100000000000     0          
O        O      0.500000000000     0.414700000000     0.150000000000     0          
O        O      0.842600000000     0.407400000000     0.050000000000     0          
O        O      0.592600000000     0.342600000000     0.050000000000     0          
O        O      0.657400000000     0.092600000000     0.050000000000     0          
O        O      0.907400000000     0.157400000000     0.050000000000     0          
O        O      0.842600000000     0.092600000000     0.150000000000     0          
O        O      0.907400000000     0.342600000000     0.150000000000     0          
O        O      0.657400000000     0.407400000000     0.150000000000     0          
O        O      0.592600000000     0.157400000000     0.150000000000     0          
O        O      0.846150000000     0.346150000000     0.000000000000     0          
O        O      0.884900000000     0.285750000000     0.000000000000     0          
O        O      0.835300000000     0.250000000000     0.150000000000     0          
O        O      0.785550000000     0.285550000000     0.100000000000     0          
O        O      0.653850000000     0.346150000000     0.000000000000     0          
O        O      0.714250000000     0.384900000000     0.000000000000     0          
O        O      0.750000000000     0.335300000000     0.150000000000     0          
O        O      0.714450000000     0.285550000000     0.100000000000     0          
O        O      0.653850000000     0.153850000000     0.000000000000     0          
O        O      0.615100000000     0.214250000000     0.000000000000     0          
O        O      0.664700000000     0.250000000000     0.150000000000     0          
O        O      0.714450000000     0.214450000000     0.100000000000     0          
O        O      0.846150000000     0.153850000000     0.000000000000     0          
O        O      0.785750000000     0.115100000000     0.000000000000     0          
O        O      0.750000000000     0.164700000000     0.150000000000     0          
O        O      0.785550000000     0.214450000000     0.100000000000     0          
O        O      0.884900000000     0.214250000000     0.000000000000     0          
O        O      0.835300000000     0.250000000000     0.050000000000     0          
O        O      0.785750000000     0.384900000000     0.000000000000     0          
O        O      0.750000000000     0.335300000000     0.050000000000     0          
O        O      0.615100000000     0.285750000000     0.000000000000     0          
O        O      0.664700000000     0.250000000000     0.050000000000     0          
O        O      0.714250000000     0.115100000000     0.000000000000     0          
O        O      0.750000000000     0.164700000000     0.050000000000     0          
O        O      0.596150000000     0.096150000000     0.300000000000     0          
O        O      0.657400000000     0.092600000000     0.350000000000     0          
O        O      0.634900000000     0.035750000000     0.300000000000     0          
O        O      0.585300000000     0.000000000000     0.250000000000     0          
O        O      0.535550000000     0.035550000000     0.200000000000     0          
O        O      0.903850000000     0.096150000000     0.300000000000     0          
O        O      0.907400000000     0.157400000000     0.350000000000     0          
O        O      0.964250000000     0.134900000000     0.300000000000     0          
O        O      0.500000000000     0.085300000000     0.250000000000     0          
O        O      0.964450000000     0.035550000000     0.200000000000     0          
O        O      0.903850000000     0.403850000000     0.300000000000     0          
O        O      0.842600000000     0.407400000000     0.350000000000     0          
O        O      0.865100000000     0.464250000000     0.300000000000     0          
O        O      0.914700000000     0.000000000000     0.250000000000     0          
O        O      0.964450000000     0.464450000000     0.200000000000     0          
O        O      0.596150000000     0.403850000000     0.300000000000     0          
O        O      0.592600000000     0.342600000000     0.350000000000     0          
O        O      0.535750000000     0.365100000000     0.300000000000     0          
O        O      0.500000000000     0.414700000000     0.250000000000     0          
O        O      0.535550000000     0.464450000000     0.200000000000     0          
O        O      0.657400000000     0.407400000000     0.250000000000     0          
O        O      0.634900000000     0.464250000000     0.300000000000     0          
O        O      0.585300000000     0.000000000000     0.350000000000     0          
O        O      0.592600000000     0.157400000000     0.250000000000     0          
O        O      0.535750000000     0.134900000000     0.300000000000     0          
O        O      0.500000000000     0.085300000000     0.350000000000     0          
O        O      0.842600000000     0.092600000000     0.250000000000     0          
O        O      0.865100000000     0.035750000000     0.300000000000     0          
O        O      0.914700000000     0.000000000000     0.350000000000     0          
O        O      0.907400000000     0.342600000000     0.250000000000     0          
O        O      0.964250000000     0.365100000000     0.300000000000     0          
O        O      0.500000000000     0.414700000000     0.350000000000     0          
O        O      0.842600000000     0.407400000000     0.250000000000     0          
O        O      0.592600000000     0.342600000000     0.250000000000     0          
O        O      0.657400000000     0.092600000000     0.250000000000     0          
O        O      0.907400000000     0.157400000000     0.250000000000     0          
O        O      0.842600000000     0.092600000000     0.350000000000     0          
O        O      0.907400000000     0.342600000000     0.350000000000     0          
O        O      0.657400000000     0.407400000000     0.350000000000     0          
O        O      0.592600000000     0.157400000000     0.350000000000     0          
O        O      0.846150000000     0.346150000000     0.200000000000     0          
O        O      0.884900000000     0.285750000000     0.200000000000     0          
O        O      0.835300000000     0.250000000000     0.350000000000     0          
O        O      0.785550000000     0.285550000000     0.300000000000     0          
O        O      0.653850000000     0.346150000000     0.200000000000     0          
O        O      0.714250000000     0.384900000000     0.200000000000     0          
O        O      0.750000000000     0.335300000000     0.350000000000     0          
O        O      0.714450000000     0.285550000000     0.300000000000     0          
O        O      0.653850000000     0.153850000000     0.200000000000     0          
O        O      0.615100000000     0.214250000000     0.200000000000     0          
O        O      0.664700000000     0.250000000000     0.350000000000     0          
O        O      0.714450000000     0.214450000000     0.300000000000     0          
O        O      0.846150000000     0.153850000000     0.200000000000     0          
O        O      0.785750000000     0.115100000000     0.200000000000     0          
O        O      0.750000000000     0.164700000000     0.350000000000     0          
O        O      0.785550000000     0.214450000000     0.300000000000     0          
O        O      0.884900000000     0.214250000000     0.200000000000     0          
O        O      0.835300000000     0.250000000000     0.250000000000     0          
O        O      0.785750000000     0.384900000000     0.200000000000     0          
O        O      0.750000000000     0.335300000000     0.250000000000     0          
O        O      0.615100000000     0.285750000000     0.200000000000     0          
O        O      0.664700000000     0.250000000000     0.250000000000     0          
O        O      0.714250000000     0.115100000000     0.200000000000     0          
O        O      0.750000000000     0.164700000000     0.250000000000     0          
O        O      0.596150000000     0.096150000000     0.500000000000     0          
O        O      0.657400000000     0.092600000000     0.550000000000     0          
O        O      0.634900000000     0.035750000000     0.500000000000     0          
O        O      0.585300000000     0.000000000000     0.450000000000     0          
O        O      0.535550000000     0.035550000000     0.400000000000     0          
O        O      0.903850000000     0.096150000000     0.500000000000     0          
O        O      0.907400000000     0.157400000000     0.550000000000     0          
O        O      0.964250000000     0.134900000000     0.500000000000     0          
O        O      0.500000000000     0.085300000000     0.450000000000     0          
O        O      0.964450000000     0.035550000000     0.400000000000     0          
O        O      0.903850000000     0.403850000000     0.500000000000     0          
O        O      0.842600000000     0.407400000000     0.550000000000     0          
O        O      0.865100000000     0.464250000000     0.500000000000     0          
O        O      0.914700000000     0.000000000000     0.450000000000     0          
O        O      0.964450000000     0.464450000000     0.400000000000     0          
O        O      0.596150000000     0.403850000000     0.500000000000     0          
O        O      0.592600000000     0.342600000000     0.550000000000     0          
O        O      0.535750000000     0.365100000000     0.500000000000     0          
O        O      0.500000000000     0.414700000000     0.450000000000     0          
O        O      0.535550000000     0.464450000000     0.400000000000     0          
O        O      0.657400000000     0.407400000000     0.450000000000     0          
O        O      0.634900000000     0.464250000000     0.500000000000     0          
O        O      0.585300000000     0.000000000000     0.550000000000     0          
O        O      0.592600000000     0.157400000000     0.450000000000     0          
O        O      0.535750000000     0.134900000000     0.500000000000     0          
O        O      0.500000000000     0.085300000000     0.550000000000     0          
O        O      0.842600000000     0.092600000000     0.450000000000     0          
O        O      0.865100000000     0.035750000000     0.500000000000     0          
O        O      0.914700000000     0.000000000000     0.550000000000     0          
O        O      0.907400000000     0.342600000000     0.450000000000     0          
O        O      0.964250000000     0.365100000000     0.500000000000     0          
O        O      0.500000000000     0.414700000000     0.550000000000     0          
O        O      0.842600000000     0.407400000000     0.450000000000     0          
O        O      0.592600000000     0.342600000000     0.450000000000     0          
O        O      0.657400000000     0.092600000000     0.450000000000     0          
O        O      0.907400000000     0.157400000000     0.450000000000     0          
O        O      0.842600000000     0.092600000000     0.550000000000     0          
O        O      0.907400000000     0.342600000000     0.550000000000     0          
O        O      0.657400000000     0.407400000000     0.550000000000     0          
O        O      0.592600000000     0.157400000000     0.550000000000     0          
O        O      0.846150000000     0.346150000000     0.400000000000     0          
O        O      0.884900000000     0.285750000000     0.400000000000     0          
O        O      0.835300000000     0.250000000000     0.550000000000     0          
O        O      0.785550000000     0.285550000000     0.500000000000     0          
O        O      0.653850000000     0.346150000000     0.400000000000     0          
O        O      0.714250000000     0.384900000000     0.400000000000     0          
O        O      0.750000000000     0.335300000000     0.550000000000     0          
O        O      0.714450000000     0.285550000000     0.500000000000     0          
O        O      0.653850000000     0.153850000000     0.400000000000     0          
O        O      0.615100000000     0.214250000000     0.400000000000     0          
O        O      0.664700000000     0.250000000000     0.550000000000     0          
O        O      0.714450000000     0.214450000000     0.500000000000     0          
O        O      0.846150000000     0.153850000000     0.400000000000     0          
O        O      0.785750000000     0.115100000000     0.400000000000     0          
O        O      0.750000000000     0.164700000000     0.550000000000     0          
O        O      0.785550000000     0.214450000000     0.500000000000     0          
O        O      0.884900000000     0.214250000000     0.400000000000     0          
O        O      0.835300000000     0.250000000000     0.450000000000     0          
O        O      0.785750000000     0.384900000000     0.400000000000     0          
O        O      0.750000000000     0.335300000000     0.450000000000     0          
O        O      0.615100000000     0.285750000000     0.400000000000     0          
O        O      0.664700000000     0.250000000000     0.450000000000     0          
O        O      0.714250000000     0.115100000000     0.400000000000     0          
O        O      0.750000000000     0.164700000000     0.450000000000     0          
O        O      0.596150000000     0.096150000000     0.700000000000     0          
O        O      0.657400000000     0.092600000000     0.750000000000     0          
O        O      0.634900000000     0.035750000000     0.700000000000     0          
O        O      0.585300000000     0.000000000000     0.650000000000     0          
O        O      0.535550000000     0.035550000000     0.600000000000     0          
O        O      0.903850000000     0.096150000000     0.700000000000     0          
O        O      0.907400000000     0.157400000000     0.750000000000     0          
O        O      0.964250000000     0.134900000000     0.700000000000     0          
O        O      0.500000000000     0.085300000000     0.650000000000     0          
O        O      0.964450000000     0.035550000000     0.600000000000     0          
O        O      0.903850000000     0.403850000000     0.700000000000     0          
O        O      0.842600000000     0.407400000000     0.750000000000     0          
O        O      0.865100000000     0.464250000000     0.700000000000     0          
O        O      0.914700000000     0.000000000000     0.650000000000     0          
O        O      0.964450000000     0.464450000000     0.600000000000     0          
O        O      0.596150000000     0.403850000000     0.700000000000     0          
O        O      0.592600000000     0.342600000000     0.750000000000     0          
O        O      0.535750000000     0.365100000000     0.700000000000     0          
O        O      0.500000000000     0.414700000000     0.650000000000     0          
O        O      0.535550000000     0.464450000000     0.600000000000     0          
O        O      0.657400000000     0.407400000000     0.650000000000     0          
O        O      0.634900000000     0.464250000000     0.700000000000     0          
O        O      0.585300000000     0.000000000000     0.750000000000     0          
O        O      0.592600000000     0.157400000000     0.650000000000     0          
O        O      0.535750000000     0.134900000000     0.700000000000     0          
O        O      0.500000000000     0.085300000000     0.750000000000     0          
O        O      0.842600000000     0.092600000000     0.650000000000     0          
O        O      0.865100000000     0.035750000000     0.700000000000     0          
O        O      0.914700000000     0.000000000000     0.750000000000     0          
O        O      0.907400000000     0.342600000000     0.650000000000     0          
O        O      0.964250000000     0.365100000000     0.700000000000     0          
O        O      0.500000000000     0.414700000000     0.750000000000     0          
O        O      0.842600000000     0.407400000000     0.650000000000     0          
O        O      0.592600000000     0.342600000000     0.650000000000     0          
O        O      0.657400000000     0.092600000000     0.650000000000     0          
O        O      0.907400000000     0.157400000000     0.650000000000     0          
O        O      0.842600000000     0.092600000000     0.750000000000     0          
O        O      0.907400000000     0.342600000000     0.750000000000     0          
O        O      0.657400000000     0.407400000000     0.750000000000     0          
O        O      0.592600000000     0.157400000000     0.750000000000     0          
O        O      0.846150000000     0.346150000000     0.600000000000     0          
O        O      0.884900000000     0.285750000000     0.600000000000     0          
O        O      0.835300000000     0.250000000000     0.750000000000     0          
O        O      0.785550000000     0.285550000000     0.700000000000     0          
O        O      0.653850000000     0.346150000000     0.600000000000     0          
O        O      0.714250000000     0.384900000000     0.600000000000     0          
O        O      0.750000000000     0.335300000000     0.750000000000     0          
O        O      0.714450000000     0.285550000000     0.700000000000     0          
O        O      0.653850000000     0.153850000000     0.600000000000     0          
O        O      0.615100000000     0.214250000000     0.600000000000     0          
O        O      0.664700000000     0.250000000000     0.750000000000     0          
O        O      0.714450000000     0.214450000000     0.700000000000     0          
O        O      0.846150000000     0.153850000000     0.600000000000     0          
O        O      0.785750000000     0.115100000000     0.600000000000     0          
O        O      0.750000000000     0.164700000000     0.750000000000     0          
O        O      0.785550000000     0.214450000000     0.700000000000     0          
O        O      0.884900000000     0.214250000000     0.600000000000     0          
O        O      0.835300000000     0.250000000000     0.650000000000     0          
O        O      0.785750000000     0.384900000000     0.600000000000     0          
O        O      0.750000000000     0.335300000000     0.650000000000     0          
O        O      0.615100000000     0.285750000000     0.600000000000     0          
O        O      0.664700000000     0.250000000000     0.650000000000     0          
O        O      0.714250000000     0.115100000000     0.600000000000     0          
O        O      0.750000000000     0.164700000000     0.650000000000     0          
O        O      0.596150000000     0.096150000000     0.900000000000     0          
O        O      0.657400000000     0.092600000000     0.950000000000     0          
O        O      0.634900000000     0.035750000000     0.900000000000     0          
O        O      0.585300000000     0.000000000000     0.850000000000     0          
O        O      0.535550000000     0.035550000000     0.800000000000     0          
O        O      0.903850000000     0.096150000000     0.900000000000     0          
O        O      0.907400000000     0.157400000000     0.950000000000     0          
O        O      0.964250000000     0.134900000000     0.900000000000     0          
O        O      0.500000000000     0.085300000000     0.850000000000     0          
O        O      0.964450000000     0.035550000000     0.800000000000     0          
O        O      0.903850000000     0.403850000000     0.900000000000     0          
O        O      0.842600000000     0.407400000000     0.950000000000     0          
O        O      0.865100000000     0.464250000000     0.900000000000     0          
O        O      0.914700000000     0.000000000000     0.850000000000     0          
O        O      0.964450000000     0.464450000000     0.800000000000     0          
O        O      0.596150000000     0.403850000000     0.900000000000     0          
O        O      0.592600000000     0.342600000000     0.950000000000     0          
O        O      0.535750000000     0.365100000000     0.900000000000     0          
O        O      0.500000000000     0.414700000000     0.850000000000     0          
O        O      0.535550000000     0.464450000000     0.800000000000     0          
O        O      0.657400000000     0.407400000000     0.850000000000     0          
O        O      0.634900000000     0.464250000000     0.900000000000     0          
O        O      0.585300000000     0.000000000000     0.950000000000     0          
O        O      0.592600000000     0.157400000000     0.850000000000     0          
O        O      0.535750000000     0.134900000000     0.900000000000     0          
O        O      0.500000000000     0.085300000000     0.950000000000     0          
O        O      0.842600000000     0.092600000000     0.850000000000     0          
O        O      0.865100000000     0.035750000000     0.900000000000     0          
O        O      0.914700000000     0.000000000000     0.950000000000     0          
O        O      0.907400000000     0.342600000000     0.850000000000     0          
O        O      0.964250000000     0.365100000000     0.900000000000     0          
O        O      0.500000000000     0.414700000000     0.950000000000     0          
O        O      0.842600000000     0.407400000000     0.850000000000     0          
O        O      0.592600000000     0.342600000000     0.850000000000     0          
O        O      0.657400000000     0.092600000000     0.850000000000     0          
O        O      0.907400000000     0.157400000000     0.850000000000     0          
O        O      0.842600000000     0.092600000000     0.950000000000     0          
O        O      0.907400000000     0.342600000000     0.950000000000     0          
O        O      0.657400000000     0.407400000000     0.950000000000     0          
O        O      0.592600000000     0.157400000000     0.950000000000     0          
O        O      0.846150000000     0.346150000000     0.800000000000     0          
O        O      0.884900000000     0.285750000000     0.800000000000     0          
O        O      0.835300000000     0.250000000000     0.950000000000     0          
O        O      0.785550000000     0.285550000000     0.900000000000     0          
O        O      0.653850000000     0.346150000000     0.800000000000     0          
O        O      0.714250000000     0.384900000000     0.800000000000     0          
O        O      0.750000000000     0.335300000000     0.950000000000     0          
O        O      0.714450000000     0.285550000000     0.900000000000     0          
O        O      0.653850000000     0.153850000000     0.800000000000     0          
O        O      0.615100000000     0.214250000000     0.800000000000     0          
O        O      0.664700000000     0.250000000000     0.950000000000     0          
O        O      0.714450000000     0.214450000000     0.900000000000     0          
O        O      0.846150000000     0.153850000000     0.800000000000     0          
O        O      0.785750000000     0.115100000000     0.800000000000     0          
O        O      0.750000000000     0.164700000000     0.950000000000     0          
O        O      0.785550000000     0.214450000000     0.900000000000     0          
O        O      0.884900000000     0.214250000000     0.800000000000     0          
O        O      0.835300000000     0.250000000000     0.850000000000     0          
O        O      0.785750000000     0.384900000000     0.800000000000     0          
O        O      0.750000000000     0.335300000000     0.850000000000     0          
O        O      0.615100000000     0.285750000000     0.800000000000     0          
O        O      0.664700000000     0.250000000000     0.850000000000     0          
O        O      0.714250000000     0.115100000000     0.800000000000     0          
O        O      0.750000000000     0.164700000000     0.850000000000     0          
O        O      0.596150000000     0.596150000000     0.100000000000     0          
O        O      0.657400000000     0.592600000000     0.150000000000     0          
O        O      0.634900000000     0.535750000000     0.100000000000     0          
O        O      0.585300000000     0.500000000000     0.050000000000     0          
O        O      0.535550000000     0.535550000000     0.000000000000     0          
O        O      0.903850000000     0.596150000000     0.100000000000     0          
O        O      0.907400000000     0.657400000000     0.150000000000     0          
O        O      0.964250000000     0.634900000000     0.100000000000     0          
O        O      0.500000000000     0.585300000000     0.050000000000     0          
O        O      0.964450000000     0.535550000000     0.000000000000     0          
O        O      0.903850000000     0.903850000000     0.100000000000     0          
O        O      0.842600000000     0.907400000000     0.150000000000     0          
O        O      0.865100000000     0.964250000000     0.100000000000     0          
O        O      0.914700000000     0.500000000000     0.050000000000     0          
O        O      0.964450000000     0.964450000000     0.000000000000     0          
O        O      0.596150000000     0.903850000000     0.100000000000     0          
O        O      0.592600000000     0.842600000000     0.150000000000     0          
O        O      0.535750000000     0.865100000000     0.100000000000     0          
O        O      0.500000000000     0.914700000000     0.050000000000     0          
O        O      0.535550000000     0.964450000000     0.000000000000     0          
O        O      0.657400000000     0.907400000000     0.050000000000     0          
O        O      0.634900000000     0.964250000000     0.100000000000     0          
O        O      0.585300000000     0.500000000000     0.150000000000     0          
O        O      0.592600000000     0.657400000000     0.050000000000     0          
O        O      0.535750000000     0.634900000000     0.100000000000     0          
O        O      0.500000000000     0.585300000000     0.150000000000     0          
O        O      0.842600000000     0.592600000000     0.050000000000     0          
O        O      0.865100000000     0.535750000000     0.100000000000     0          
O        O      0.914700000000     0.500000000000     0.150000000000     0          
O        O      0.907400000000     0.842600000000     0.050000000000     0          
O        O      0.964250000000     0.865100000000     0.100000000000     0          
O        O      0.500000000000     0.914700000000     0.150000000000     0          
O        O      0.842600000000     0.907400000000     0.050000000000     0          
O        O      0.592600000000     0.842600000000     0.050000000000     0          
O        O      0.657400000000     0.592600000000     0.050000000000     0          
O        O      0.907400000000     0.657400000000     0.050000000000     0          
O        O      0.842600000000     0.592600000000     0.150000000000     0          
O        O      0.907400000000     0.842600000000     0.150000000000     0          
O        O      0.657400000000     0.907400000000     0.150000000000     0          
O        O      0.592600000000     0.657400000000     0.150000000000     0          
O        O      0.846150000000     0.846150000000     0.000000000000     0          
O        O      0.884900000000     0.785750000000     0.000000000000     0          
O        O      0.835300000000     0.750000000000     0.150000000000     0          
O        O      0.785550000000     0.785550000000     0.100000000000     0          
O        O      0.653850000000     0.846150000000     0.000000000000     0          
O        O      0.714250000000     0.884900000000     0.000000000000     0          
O        O      0.750000000000     0.835300000000     0.150000000000     0          
O        O      0.714450000000     0.785550000000     0.100000000000     0          
O        O      0.653850000000     0.653850000000     0.000000000000     0          
O        O      0.615100000000     0.714250000000     0.000000000000     0          
O        O      0.664700000000     0.750000000000     0.150000000000     0          
O        O      0.714450000000     0.714450000000     0.100000000000     0          
O        O      0.846150000000     0.653850000000     0.000000000000     0          
O        O      0.785750000000     0.615100000000     0.000000000000     0          
O        O      0.750000000000     0.664700000000     0.150000000000     0          
O        O      0.785550000000     0.714450000000     0.100000000000     0          
O        O      0.884900000000     0.714250000000     0.000000000000     0          
O        O      0.835300000000     0.750000000000     0.050000000000     0          
O        O      0.785750000000     0.884900000000     0.000000000000     0          
O        O      0.750000000000     0.835300000000     0.050000000000     0          
O        O      0.615100000000     0.785750000000     0.000000000000     0          
O        O      0.664700000000     0.750000000000     0.050000000000     0          
O        O      0.714250000000     0.615100000000     0.000000000000     0          
O        O      0.750000000000     0.664700000000     0.050000000000     0          
O        O      0.596150000000     0.596150000000     0.300000000000     0          
O        O      0.657400000000     0.592600000000     0.350000000000     0          
O        O      0.634900000000     0.535750000000     0.300000000000     0          
O        O      0.585300000000     0.500000000000     0.250000000000     0          
O        O      0.535550000000     0.535550000000     0.200000000000     0          
O        O      0.903850000000     0.596150000000     0.300000000000     0          
O        O      0.907400000000     0.657400000000     0.350000000000     0          
O        O      0.964250000000     0.634900000000     0.300000000000     0          
O        O      0.500000000000     0.585300000000     0.250000000000     0          
O        O      0.964450000000     0.535550000000     0.200000000000     0          
O        O      0.903850000000     0.903850000000     0.300000000000     0          
O        O      0.842600000000     0.907400000000     0.350000000000     0          
O        O      0.865100000000     0.964250000000     0.300000000000     0          
O        O      0.914700000000     0.500000000000     0.250000000000     0          
O        O      0.964450000000     0.964450000000     0.200000000000     0          
O        O      0.596150000000     0.903850000000     0.300000000000     0          
O        O      0.592600000000     0.842600000000     0.350000000000     0          
O        O      0.535750000000     0.865100000000     0.300000000000     0          
O        O      0.500000000000     0.914700000000     0.250000000000     0          
O        O      0.535550000000     0.964450000000     0.200000000000     0          
O        O      0.657400000000     0.907400000000     0.250000000000     0          
O        O      0.634900000000     0.964250000000     0.300000000000     0          
O        O      0.585300000000     0.500000000000     0.350000000000     0          
O        O      0.592600000000     0.657400000000     0.250000000000     0          
O        O      0.535750000000     0.634900000000     0.300000000000     0          
O        O      0.500000000000     0.585300000000     0.350000000000     0          
O        O      0.842600000000     0.592600000000     0.250000000000     0          
O        O      0.865100000000     0.535750000000     0.300000000000     0          
O        O      0.914700000000     0.500000000000     0.350000000000     0          
O        O      0.907400000000     0.842600000000     0.250000000000     0          
O        O      0.964250000000     0.865100000000     0.300000000000     0          
O        O      0.500000000000     0.914700000000     0.350000000000     0          
O        O      0.842600000000     0.907400000000     0.250000000000     0          
O        O      0.592600000000     0.842600000000     0.250000000000     0          
O        O      0.657400000000     0.592600000000     0.250000000000     0          
O        O      0.907400000000     0.657400000000     0.250000000000     0          
O        O      0.842600000000     0.592600000000     0.350000000000     0          
O        O      0.907400000000     0.842600000000     0.350000000000     0          
O        O      0.657400000000     0.907400000000     0.350000000000     0          
O        O      0.592600000000     0.657400000000     0.350000000000     0          
O        O      0.846150000000     0.846150000000     0.200000000000     0          
O        O      0.884900000000     0.785750000000     0.200000000000     0          
O        O      0.835300000000     0.750000000000     0.350000000000     0          
O        O      0.785550000000     0.785550000000     0.300000000000     0          
O        O      0.653850000000     0.846150000000     0.200000000000     0          
O        O      0.714250000000     0.884900000000     0.200000000000     0          
O        O      0.750000000000     0.835300000000     0.350000000000     0          
O        O      0.714450000000     0.785550000000     0.300000000000     0          
O        O      0.653850000000     0.653850000000     0.200000000000     0          
O        O      0.615100000000     0.714250000000     0.200000000000     0          
O        O      0.664700000000     0.750000000000     0.350000000000     0          
O        O      0.714450000000     0.714450000000     0.300000000000     0          
O        O      0.846150000000     0.653850000000     0.200000000000     0          
O        O      0.785750000000     0.615100000000     0.200000000000     0          
O        O      0.750000000000     0.664700000000     0.350000000000     0          
O        O      0.785550000000     0.714450000000     0.300000000000     0          
O        O      0.884900000000     0.714250000000     0.200000000000     0          
O        O      0.835300000000     0.750000000000     0.250000000000     0          
O        O      0.785750000000     0.884900000000     0.200000000000     0          
O        O      0.750000000000     0.835300000000     0.250000000000     0          
O        O      0.615100000000     0.785750000000     0.200000000000     0          
O        O      0.664700000000     0.750000000000     0.250000000000     0          
O        O      0.714250000000     0.615100000000     0.200000000000     0          
O        O      0.750000000000     0.664700000000     0.250000000000     0          
O        O      0.596150000000     0.596150000000     0.500000000000     0          
O        O      0.657400000000     0.592600000000     0.550000000000     0          
O        O      0.634900000000     0.535750000000     0.500000000000     0          
O        O      0.585300000000     0.500000000000     0.450000000000     0          
O        O      0.535550000000     0.535550000000     0.400000000000     0          
O        O      0.903850000000     0.596150000000     0.500000000000     0          
O        O      0.907400000000     0.657400000000     0.550000000000     0          
O        O      0.964250000000     0.634900000000     0.500000000000     0          
O        O      0.500000000000     0.585300000000     0.450000000000     0          
O        O      0.964450000000     0.535550000000     0.400000000000     0          
O        O      0.903850000000     0.903850000000     0.500000000000     0          
O        O      0.842600000000     0.907400000000     0.550000000000     0          
O        O      0.865100000000     0.964250000000     0.500000000000     0          
O        O      0.914700000000     0.500000000000     0.450000000000     0          
O        O      0.964450000000     0.964450000000     0.400000000000     0          
O        O      0.596150000000     0.903850000000     0.500000000000     0          
O        O      0.592600000000     0.842600000000     0.550000000000     0          
O        O      0.535750000000     0.865100000000     0.500000000000     0          
O        O      0.500000000000     0.914700000000     0.450000000000     0          
O        O      0.535550000000     0.964450000000     0.400000000000     0          
O        O      0.657400000000     0.907400000000     0.450000000000     0          
O        O      0.634900000000     0.964250000000     0.500000000000     0          
O        O      0.585300000000     0.500000000000     0.550000000000     0          
O        O      0.592600000000     0.657400000000     0.450000000000     0          
O        O      0.535750000000     0.634900000000     0.500000000000     0          
O        O      0.500000000000     0.585300000000     0.550000000000     0          
O        O      0.842600000000     0.592600000000     0.450000000000     0          
O        O      0.865100000000     0.535750000000     0.500000000000     0          
O        O      0.914700000000     0.500000000000     0.550000000000     0          
O        O      0.907400000000     0.842600000000     0.450000000000     0          
O        O      0.964250000000     0.865100000000     0.500000000000     0          
O        O      0.500000000000     0.914700000000     0.550000000000     0          
O        O      0.842600000000     0.907400000000     0.450000000000     0          
O        O      0.592600000000     0.842600000000     0.450000000000     0          
O        O      0.657400000000     0.592600000000     0.450000000000     0          
O        O      0.907400000000     0.657400000000     0.450000000000     0          
O        O      0.842600000000     0.592600000000     0.550000000000     0          
O        O      0.907400000000     0.842600000000     0.550000000000     0          
O        O      0.657400000000     0.907400000000     0.550000000000     0          
O        O      0.592600000000     0.657400000000     0.550000000000     0          
O        O      0.846150000000     0.846150000000     0.400000000000     0          
O        O      0.884900000000     0.785750000000     0.400000000000     0          
O        O      0.835300000000     0.750000000000     0.550000000000     0          
O        O      0.785550000000     0.785550000000     0.500000000000     0          
O        O      0.653850000000     0.846150000000     0.400000000000     0          
O        O      0.714250000000     0.884900000000     0.400000000000     0          
O        O      0.750000000000     0.835300000000     0.550000000000     0          
O        O      0.714450000000     0.785550000000     0.500000000000     0          
O        O      0.653850000000     0.653850000000     0.400000000000     0          
O        O      0.615100000000     0.714250000000     0.400000000000     0          
O        O      0.664700000000     0.750000000000     0.550000000000     0          
O        O      0.714450000000     0.714450000000     0.500000000000     0          
O        O      0.846150000000     0.653850000000     0.400000000000     0          
O        O      0.785750000000     0.615100000000     0.400000000000     0          
O        O      0.750000000000     0.664700000000     0.550000000000     0          
O        O      0.785550000000     0.714450000000     0.500000000000     0          
O        O      0.884900000000     0.714250000000     0.400000000000     0          
O        O      0.835300000000     0.750000000000     0.450000000000     0          
O        O      0.785750000000     0.884900000000     0.400000000000     0          
O        O      0.750000000000     0.835300000000     0.450000000000     0          
O        O      0.615100000000     0.785750000000     0.400000000000     0          
O        O      0.664700000000     0.750000000000     0.450000000000     0          
O        O      0.714250000000     0.615100000000     0.400000000000     0          
O        O      0.750000000000     0.664700000000     0.450000000000     0          
O        O      0.596150000000     0.596150000000     0.700000000000     0          
O        O      0.657400000000     0.592600000000     0.750000000000     0          
O        O      0.634900000000     0.535750000000     0.700000000000     0          
O        O      0.585300000000     0.500000000000     0.650000000000     0          
O        O      0.535550000000     0.535550000000     0.600000000000     0          
O        O      0.903850000000     0.596150000000     0.700000000000     0          
O        O      0.907400000000     0.657400000000     0.750000000000     0          
O        O      0.964250000000     0.634900000000     0.700000000000     0          
O        O      0.500000000000     0.585300000000     0.650000000000     0          
O        O      0.964450000000     0.535550000000     0.600000000000     0          
O        O      0.903850000000     0.903850000000     0.700000000000     0          
O        O      0.842600000000     0.907400000000     0.750000000000     0          
O        O      0.865100000000     0.964250000000     0.700000000000     0          
O        O      0.914700000000     0.500000000000     0.650000000000     0          
O        O      0.964450000000     0.964450000000     0.600000000000     0          
O        O      0.596150000000     0.903850000000     0.700000000000     0          
O        O      0.592600000000     0.842600000000     0.750000000000     0          
O        O      0.535750000000     0.865100000000     0.700000000000     0          
O        O      0.500000000000     0.914700000000     0.650000000000     0          
O        O      0.535550000000     0.964450000000     0.600000000000     0          
O        O      0.657400000000     0.907400000000     0.650000000000     0          
O        O      0.634900000000     0.964250000000     0.700000000000     0          
O        O      0.585300000000     0.500000000000     0.750000000000     0          
O        O      0.592600000000     0.657400000000     0.650000000000     0          
O        O      0.535750000000     0.634900000000     0.700000000000     0          
O        O      0.500000000000     0.585300000000     0.750000000000     0          
O        O      0.842600000000     0.592600000000     0.650000000000     0          
O        O      0.865100000000     0.535750000000     0.700000000000     0          
O        O      0.914700000000     0.500000000000     0.750000000000     0          
O        O      0.907400000000     0.842600000000     0.650000000000     0          
O        O      0.964250000000     0.865100000000     0.700000000000     0          
O        O      0.500000000000     0.914700000000     0.750000000000     0          
O        O      0.842600000000     0.907400000000     0.650000000000     0          
O        O      0.592600000000     0.842600000000     0.650000000000     0          
O        O      0.657400000000     0.592600000000     0.650000000000     0          
O        O      0.907400000000     0.657400000000     0.650000000000     0          
O        O      0.842600000000     0.592600000000     0.750000000000     0          
O        O      0.907400000000     0.842600000000     0.750000000000     0          
O        O      0.657400000000     0.907400000000     0.750000000000     0          
O        O      0.592600000000     0.657400000000     0.750000000000     0          
O        O      0.846150000000     0.846150000000     0.600000000000     0          
O        O      0.884900000000     0.785750000000     0.600000000000     0          
O        O      0.835300000000     0.750000000000     0.750000000000     0          
O        O      0.785550000000     0.785550000000     0.700000000000     0          
O        O      0.653850000000     0.846150000000     0.600000000000     0          
O        O      0.714250000000     0.884900000000     0.600000000000     0          
O        O      0.750000000000     0.835300000000     0.750000000000     0          
O        O      0.714450000000     0.785550000000     0.700000000000     0          
O        O      0.653850000000     0.653850000000     0.600000000000     0          
O        O      0.615100000000     0.714250000000     0.600000000000     0          
O        O      0.664700000000     0.750000000000     0.750000000000     0          
O        O      0.714450000000     0.714450000000     0.700000000000     0          
O        O      0.846150000000     0.653850000000     0.600000000000     0          
O        O      0.785750000000     0.615100000000     0.600000000000     0          
O        O      0.750000000000     0.664700000000     0.750000000000     0          
O        O      0.785550000000     0.714450000000     0.700000000000     0          
O        O      0.884900000000     0.714250000000     0.600000000000     0          
O        O      0.835300000000     0.750000000000     0.650000000000     0          
O        O      0.785750000000     0.884900000000     0.600000000000     0          
O        O      0.750000000000     0.835300000000     0.650000000000     0          
O        O      0.615100000000     0.785750000000     0.600000000000     0          
O        O      0.664700000000     0.750000000000     0.650000000000     0          
O        O      0.714250000000     0.615100000000     0.600000000000     0          
O        O      0.750000000000     0.664700000000     0.650000000000     0          
O        O      0.596150000000     0.596150000000     0.900000000000     0          
O        O      0.657400000000     0.592600000000     0.950000000000     0          
O        O      0.634900000000     0.535750000000     0.900000000000     0          
O        O      0.585300000000     0.500000000000     0.850000000000     0          
O        O      0.535550000000     0.535550000000     0.800000000000     0          
O        O      0.903850000000     0.596150000000     0.900000000000     0          
O        O      0.907400000000     0.657400000000     0.950000000000     0          
O        O      0.964250000000     0.634900000000     0.900000000000     0          
O        O      0.500000000000     0.585300000000     0.850000000000     0          
O        O      0.964450000000     0.535550000000     0.800000000000     0          
O        O      0.903850000000     0.903850000000     0.900000000000     0          
O        O      0.842600000000     0.907400000000     0.950000000000     0          
O        O      0.865100000000     0.964250000000     0.900000000000     0          
O        O      0.914700000000     0.500000000000     0.850000000000     0          
O        O      0.964450000000     0.964450000000     0.800000000000     0          
O        O      0.596150000000     0.903850000000     0.900000000000     0          
O        O      0.592600000000     0.842600000000     0.950000000000     0          
O        O      0.535750000000     0.865100000000     0.900000000000     0          
O        O      0.500000000000     0.914700000000     0.850000000000     0          
O        O      0.535550000000     0.964450000000     0.800000000000     0          
O        O      0.657400000000     0.907400000000     0.850000000000     0          
O        O      0.634900000000     0.964250000000     0.900000000000     0          
O        O      0.585300000000     0.500000000000     0.950000000000     0          
O        O      0.592600000000     0.657400000000     0.850000000000     0          
O        O      0.535750000000     0.634900000000     0.900000000000     0          
O        O      0.500000000000     0.585300000000     0.950000000000     0          
O        O      0.842600000000     0.592600000000     0.850000000000     0          
O        O      0.865100000000     0.535750000000     0.900000000000     0          
O        O      0.914700000000     0.500000000000     0.950000000000     0          
O        O      0.907400000000     0.842600000000     0.850000000000     0          
O        O      0.964250000000     0.865100000000     0.900000000000     0          
O        O      0.500000000000     0.914700000000     0.950000000000     0          
O        O      0.842600000000     0.907400000000     0.850000000000     0          
O        O      0.592600000000     0.842600000000     0.850000000000     0          
O        O      0.657400000000     0.592600000000     0.850000000000     0          
O        O      0.907400000000     0.657400000000     0.850000000000     0          
O        O      0.842600000000     0.592600000000     0.950000000000     0          
O        O      0.907400000000     0.842600000000     0.950000000000     0          
O        O      0.657400000000     0.907400000000     0.950000000000     0          
O        O      0.592600000000     0.657400000000     0.950000000000     0          
O        O      0.846150000000     0.846150000000     0.800000000000     0          
O        O      0.884900000000     0.785750000000     0.800000000000     0          
O        O      0.835300000000     0.750000000000     0.950000000000     0          
O        O      0.785550000000     0.785550000000     0.900000000000     0          
O        O      0.653850000000     0.846150000000     0.800000000000     0          
O        O      0.714250000000     0.884900000000     0.800000000000     0          
O        O      0.750000000000     0.835300000000     0.950000000000     0          
O        O      0.714450000000     0.785550000000     0.900000000000     0          
O        O      0.653850000000     0.653850000000     0.800000000000     0          
O        O      0.615100000000     0.714250000000     0.800000000000     0          
O        O      0.664700000000     0.750000000000     0.950000000000     0          
O        O      0.714450000000     0.714450000000     0.900000000000     0          
O        O      0.846150000000     0.653850000000     0.800000000000     0          
O        O      0.785750000000     0.615100000000     0.800000000000     0          
O        O      0.750000000000     0.664700000000     0.950000000000     0          
O        O      0.785550000000     0.714450000000     0.900000000000     0          
O        O      0.884900000000     0.714250000000     0.800000000000     0          
O        O      0.835300000000     0.750000000000     0.850000000000     0          
O        O      0.785750000000     0.884900000000     0.800000000000     0          
O        O      0.750000000000     0.835300000000     0.850000000000     0          
O        O      0.615100000000     0.785750000000     0.800000000000     0          
O        O      0.664700000000     0.750000000000     0.850000000000     0          
O        O      0.714250000000     0.615100000000     0.800000000000     0          
O        O      0.750000000000     0.664700000000     0.850000000000     0          


