data_zeolite

_audit_creation_method RASPA-1.0
_audit_creation_date 2021-6-7
_audit_author_name ''

_cell_length_a    13.05
_cell_length_b    21.853
_cell_length_c    13.573
_cell_angle_alpha 90
_cell_angle_beta  102.905
_cell_angle_gamma 90
_cell_volume      45276

_symmetry_cell_setting          monoclinic
_symmetry_space_group_name_Hall 'P 1'
_symmetry_space_group_name_H-M  'P 1'
_symmetry_Int_Tables_number     1

_symmetry_equiv_pos_as_xyz 'x,y,z'

loop_
_atom_site_label
_atom_site_type_symbol
_atom_site_fract_x
_atom_site_fract_y
_atom_site_fract_z
_atom_site_charge
T        Si     0.198733333333     0.081850000000     0.104050000000     0          
T        Si     0.215433333333     0.083450000000     0.223800000000     0          
T        Si     0.231700000000     0.284950000000     0.476550000000     0          
T        Si     0.218366666667     0.246400000000     0.057650000000     0          
T        Si     0.217200000000     0.151250000000     0.106850000000     0          
T        Si     0.231600000000     0.153150000000     0.223100000000     0          
T        Si     0.166600000000     0.205600000000     0.100950000000     0          
T        Si     0.156466666667     0.048050000000     0.262400000000     0          
T        Si     0.254333333333     0.276350000000     0.162050000000     0          
T        Si     0.124500000000     0.001300000000     0.190450000000     0          
T        Si     0.050166666667     0.247100000000     0.175650000000     0          
T        Si     0.269766666667     0.192950000000     0.074800000000     0          
T        Si     0.181800000000     0.209000000000     0.218350000000     0          
T        Si     0.296800000000     0.190600000000     0.277350000000     0          
T        Si     0.114866666667     0.229850000000     0.249850000000     0          
T        Si     0.307433333333     0.221600000000     0.180000000000     0          
T        Si     0.301266666667     0.331850000000     0.145950000000     0          
T        Si     0.284566666667     0.333450000000     0.026200000000     0          
T        Si     0.268300000000     0.034950000000     0.273450000000     0          
T        Si     0.281633333333     0.496400000000     0.192350000000     0          
T        Si     0.282800000000     0.401250000000     0.143150000000     0          
T        Si     0.268400000000     0.403150000000     0.026900000000     0          
T        Si     0.000066666667     0.455600000000     0.149050000000     0          
T        Si     0.010200000000     0.298050000000     0.487600000000     0          
T        Si     0.245666666667     0.026350000000     0.087950000000     0          
T        Si     0.042166666667     0.251300000000     0.059550000000     0          
T        Si     0.116500000000     0.497100000000     0.074350000000     0          
T        Si     0.230233333333     0.442950000000     0.175200000000     0          
T        Si     0.318200000000     0.459000000000     0.031650000000     0          
T        Si     0.203200000000     0.440600000000     0.472650000000     0          
T        Si     0.051800000000     0.479850000000     0.000150000000     0          
T        Si     0.192566666667     0.471600000000     0.070000000000     0          
T        Si     0.134600000000     0.418150000000     0.395950000000     0          
T        Si     0.117900000000     0.416550000000     0.276200000000     0          
T        Si     0.101633333333     0.215050000000     0.023450000000     0          
T        Si     0.114966666667     0.253600000000     0.442350000000     0          
T        Si     0.116133333333     0.348750000000     0.393150000000     0          
T        Si     0.101733333333     0.346850000000     0.276900000000     0          
T        Si     0.166733333333     0.294400000000     0.399050000000     0          
T        Si     0.176866666667     0.451950000000     0.237600000000     0          
T        Si     0.079000000000     0.223650000000     0.337950000000     0          
T        Si     0.208833333333     0.498700000000     0.309550000000     0          
T        Si     0.283166666667     0.252900000000     0.324350000000     0          
T        Si     0.063566666667     0.307050000000     0.425200000000     0          
T        Si     0.151533333333     0.291000000000     0.281650000000     0          
T        Si     0.036533333333     0.309400000000     0.222650000000     0          
T        Si     0.218466666667     0.270150000000     0.250150000000     0          
T        Si     0.025900000000     0.278400000000     0.320000000000     0          
T        Si     0.032066666667     0.168150000000     0.354050000000     0          
T        Si     0.048766666667     0.166550000000     0.473800000000     0          
T        Si     0.065033333333     0.465050000000     0.226550000000     0          
T        Si     0.051700000000     0.003600000000     0.307650000000     0          
T        Si     0.050533333333     0.098750000000     0.356850000000     0          
T        Si     0.064933333333     0.096850000000     0.473100000000     0          
T        Si     0.333266666667     0.044400000000     0.350950000000     0          
T        Si     0.323133333333     0.201950000000     0.012400000000     0          
T        Si     0.087666666667     0.473650000000     0.412050000000     0          
T        Si     0.291166666667     0.248700000000     0.440450000000     0          
T        Si     0.216833333333     0.002900000000     0.425650000000     0          
T        Si     0.103100000000     0.057050000000     0.324800000000     0          
T        Si     0.015133333333     0.041000000000     0.468350000000     0          
T        Si     0.130133333333     0.059400000000     0.027350000000     0          
T        Si     0.281533333333     0.020150000000     0.499850000000     0          
T        Si     0.140766666667     0.028400000000     0.430000000000     0          
T        Si     0.198733333333     0.081850000000     0.604050000000     0          
T        Si     0.215433333333     0.083450000000     0.723800000000     0          
T        Si     0.231700000000     0.284950000000     0.976550000000     0          
T        Si     0.218366666667     0.246400000000     0.557650000000     0          
T        Si     0.217200000000     0.151250000000     0.606850000000     0          
T        Si     0.231600000000     0.153150000000     0.723100000000     0          
T        Si     0.166600000000     0.205600000000     0.600950000000     0          
T        Si     0.156466666667     0.048050000000     0.762400000000     0          
T        Si     0.254333333333     0.276350000000     0.662050000000     0          
T        Si     0.124500000000     0.001300000000     0.690450000000     0          
T        Si     0.050166666667     0.247100000000     0.675650000000     0          
T        Si     0.269766666667     0.192950000000     0.574800000000     0          
T        Si     0.181800000000     0.209000000000     0.718350000000     0          
T        Si     0.296800000000     0.190600000000     0.777350000000     0          
T        Si     0.114866666667     0.229850000000     0.749850000000     0          
T        Si     0.307433333333     0.221600000000     0.680000000000     0          
T        Si     0.301266666667     0.331850000000     0.645950000000     0          
T        Si     0.284566666667     0.333450000000     0.526200000000     0          
T        Si     0.268300000000     0.034950000000     0.773450000000     0          
T        Si     0.281633333333     0.496400000000     0.692350000000     0          
T        Si     0.282800000000     0.401250000000     0.643150000000     0          
T        Si     0.268400000000     0.403150000000     0.526900000000     0          
T        Si     0.000066666667     0.455600000000     0.649050000000     0          
T        Si     0.010200000000     0.298050000000     0.987600000000     0          
T        Si     0.245666666667     0.026350000000     0.587950000000     0          
T        Si     0.042166666667     0.251300000000     0.559550000000     0          
T        Si     0.116500000000     0.497100000000     0.574350000000     0          
T        Si     0.230233333333     0.442950000000     0.675200000000     0          
T        Si     0.318200000000     0.459000000000     0.531650000000     0          
T        Si     0.203200000000     0.440600000000     0.972650000000     0          
T        Si     0.051800000000     0.479850000000     0.500150000000     0          
T        Si     0.192566666667     0.471600000000     0.570000000000     0          
T        Si     0.134600000000     0.418150000000     0.895950000000     0          
T        Si     0.117900000000     0.416550000000     0.776200000000     0          
T        Si     0.101633333333     0.215050000000     0.523450000000     0          
T        Si     0.114966666667     0.253600000000     0.942350000000     0          
T        Si     0.116133333333     0.348750000000     0.893150000000     0          
T        Si     0.101733333333     0.346850000000     0.776900000000     0          
T        Si     0.166733333333     0.294400000000     0.899050000000     0          
T        Si     0.176866666667     0.451950000000     0.737600000000     0          
T        Si     0.079000000000     0.223650000000     0.837950000000     0          
T        Si     0.208833333333     0.498700000000     0.809550000000     0          
T        Si     0.283166666667     0.252900000000     0.824350000000     0          
T        Si     0.063566666667     0.307050000000     0.925200000000     0          
T        Si     0.151533333333     0.291000000000     0.781650000000     0          
T        Si     0.036533333333     0.309400000000     0.722650000000     0          
T        Si     0.218466666667     0.270150000000     0.750150000000     0          
T        Si     0.025900000000     0.278400000000     0.820000000000     0          
T        Si     0.032066666667     0.168150000000     0.854050000000     0          
T        Si     0.048766666667     0.166550000000     0.973800000000     0          
T        Si     0.065033333333     0.465050000000     0.726550000000     0          
T        Si     0.051700000000     0.003600000000     0.807650000000     0          
T        Si     0.050533333333     0.098750000000     0.856850000000     0          
T        Si     0.064933333333     0.096850000000     0.973100000000     0          
T        Si     0.333266666667     0.044400000000     0.850950000000     0          
T        Si     0.323133333333     0.201950000000     0.512400000000     0          
T        Si     0.087666666667     0.473650000000     0.912050000000     0          
T        Si     0.291166666667     0.248700000000     0.940450000000     0          
T        Si     0.216833333333     0.002900000000     0.925650000000     0          
T        Si     0.103100000000     0.057050000000     0.824800000000     0          
T        Si     0.015133333333     0.041000000000     0.968350000000     0          
T        Si     0.130133333333     0.059400000000     0.527350000000     0          
T        Si     0.281533333333     0.020150000000     0.999850000000     0          
T        Si     0.140766666667     0.028400000000     0.930000000000     0          
T        Si     0.198733333333     0.581850000000     0.104050000000     0          
T        Si     0.215433333333     0.583450000000     0.223800000000     0          
T        Si     0.231700000000     0.784950000000     0.476550000000     0          
T        Si     0.218366666667     0.746400000000     0.057650000000     0          
T        Si     0.217200000000     0.651250000000     0.106850000000     0          
T        Si     0.231600000000     0.653150000000     0.223100000000     0          
T        Si     0.166600000000     0.705600000000     0.100950000000     0          
T        Si     0.156466666667     0.548050000000     0.262400000000     0          
T        Si     0.254333333333     0.776350000000     0.162050000000     0          
T        Si     0.124500000000     0.501300000000     0.190450000000     0          
T        Si     0.050166666667     0.747100000000     0.175650000000     0          
T        Si     0.269766666667     0.692950000000     0.074800000000     0          
T        Si     0.181800000000     0.709000000000     0.218350000000     0          
T        Si     0.296800000000     0.690600000000     0.277350000000     0          
T        Si     0.114866666667     0.729850000000     0.249850000000     0          
T        Si     0.307433333333     0.721600000000     0.180000000000     0          
T        Si     0.301266666667     0.831850000000     0.145950000000     0          
T        Si     0.284566666667     0.833450000000     0.026200000000     0          
T        Si     0.268300000000     0.534950000000     0.273450000000     0          
T        Si     0.281633333333     0.996400000000     0.192350000000     0          
T        Si     0.282800000000     0.901250000000     0.143150000000     0          
T        Si     0.268400000000     0.903150000000     0.026900000000     0          
T        Si     0.000066666667     0.955600000000     0.149050000000     0          
T        Si     0.010200000000     0.798050000000     0.487600000000     0          
T        Si     0.245666666667     0.526350000000     0.087950000000     0          
T        Si     0.042166666667     0.751300000000     0.059550000000     0          
T        Si     0.116500000000     0.997100000000     0.074350000000     0          
T        Si     0.230233333333     0.942950000000     0.175200000000     0          
T        Si     0.318200000000     0.959000000000     0.031650000000     0          
T        Si     0.203200000000     0.940600000000     0.472650000000     0          
T        Si     0.051800000000     0.979850000000     0.000150000000     0          
T        Si     0.192566666667     0.971600000000     0.070000000000     0          
T        Si     0.134600000000     0.918150000000     0.395950000000     0          
T        Si     0.117900000000     0.916550000000     0.276200000000     0          
T        Si     0.101633333333     0.715050000000     0.023450000000     0          
T        Si     0.114966666667     0.753600000000     0.442350000000     0          
T        Si     0.116133333333     0.848750000000     0.393150000000     0          
T        Si     0.101733333333     0.846850000000     0.276900000000     0          
T        Si     0.166733333333     0.794400000000     0.399050000000     0          
T        Si     0.176866666667     0.951950000000     0.237600000000     0          
T        Si     0.079000000000     0.723650000000     0.337950000000     0          
T        Si     0.208833333333     0.998700000000     0.309550000000     0          
T        Si     0.283166666667     0.752900000000     0.324350000000     0          
T        Si     0.063566666667     0.807050000000     0.425200000000     0          
T        Si     0.151533333333     0.791000000000     0.281650000000     0          
T        Si     0.036533333333     0.809400000000     0.222650000000     0          
T        Si     0.218466666667     0.770150000000     0.250150000000     0          
T        Si     0.025900000000     0.778400000000     0.320000000000     0          
T        Si     0.032066666667     0.668150000000     0.354050000000     0          
T        Si     0.048766666667     0.666550000000     0.473800000000     0          
T        Si     0.065033333333     0.965050000000     0.226550000000     0          
T        Si     0.051700000000     0.503600000000     0.307650000000     0          
T        Si     0.050533333333     0.598750000000     0.356850000000     0          
T        Si     0.064933333333     0.596850000000     0.473100000000     0          
T        Si     0.333266666667     0.544400000000     0.350950000000     0          
T        Si     0.323133333333     0.701950000000     0.012400000000     0          
T        Si     0.087666666667     0.973650000000     0.412050000000     0          
T        Si     0.291166666667     0.748700000000     0.440450000000     0          
T        Si     0.216833333333     0.502900000000     0.425650000000     0          
T        Si     0.103100000000     0.557050000000     0.324800000000     0          
T        Si     0.015133333333     0.541000000000     0.468350000000     0          
T        Si     0.130133333333     0.559400000000     0.027350000000     0          
T        Si     0.281533333333     0.520150000000     0.499850000000     0          
T        Si     0.140766666667     0.528400000000     0.430000000000     0          
T        Si     0.198733333333     0.581850000000     0.604050000000     0          
T        Si     0.215433333333     0.583450000000     0.723800000000     0          
T        Si     0.231700000000     0.784950000000     0.976550000000     0          
T        Si     0.218366666667     0.746400000000     0.557650000000     0          
T        Si     0.217200000000     0.651250000000     0.606850000000     0          
T        Si     0.231600000000     0.653150000000     0.723100000000     0          
T        Si     0.166600000000     0.705600000000     0.600950000000     0          
T        Si     0.156466666667     0.548050000000     0.762400000000     0          
T        Si     0.254333333333     0.776350000000     0.662050000000     0          
T        Si     0.124500000000     0.501300000000     0.690450000000     0          
T        Si     0.050166666667     0.747100000000     0.675650000000     0          
T        Si     0.269766666667     0.692950000000     0.574800000000     0          
T        Si     0.181800000000     0.709000000000     0.718350000000     0          
T        Si     0.296800000000     0.690600000000     0.777350000000     0          
T        Si     0.114866666667     0.729850000000     0.749850000000     0          
T        Si     0.307433333333     0.721600000000     0.680000000000     0          
T        Si     0.301266666667     0.831850000000     0.645950000000     0          
T        Si     0.284566666667     0.833450000000     0.526200000000     0          
T        Si     0.268300000000     0.534950000000     0.773450000000     0          
T        Si     0.281633333333     0.996400000000     0.692350000000     0          
T        Si     0.282800000000     0.901250000000     0.643150000000     0          
T        Si     0.268400000000     0.903150000000     0.526900000000     0          
T        Si     0.000066666667     0.955600000000     0.649050000000     0          
T        Si     0.010200000000     0.798050000000     0.987600000000     0          
T        Si     0.245666666667     0.526350000000     0.587950000000     0          
T        Si     0.042166666667     0.751300000000     0.559550000000     0          
T        Si     0.116500000000     0.997100000000     0.574350000000     0          
T        Si     0.230233333333     0.942950000000     0.675200000000     0          
T        Si     0.318200000000     0.959000000000     0.531650000000     0          
T        Si     0.203200000000     0.940600000000     0.972650000000     0          
T        Si     0.051800000000     0.979850000000     0.500150000000     0          
T        Si     0.192566666667     0.971600000000     0.570000000000     0          
T        Si     0.134600000000     0.918150000000     0.895950000000     0          
T        Si     0.117900000000     0.916550000000     0.776200000000     0          
T        Si     0.101633333333     0.715050000000     0.523450000000     0          
T        Si     0.114966666667     0.753600000000     0.942350000000     0          
T        Si     0.116133333333     0.848750000000     0.893150000000     0          
T        Si     0.101733333333     0.846850000000     0.776900000000     0          
T        Si     0.166733333333     0.794400000000     0.899050000000     0          
T        Si     0.176866666667     0.951950000000     0.737600000000     0          
T        Si     0.079000000000     0.723650000000     0.837950000000     0          
T        Si     0.208833333333     0.998700000000     0.809550000000     0          
T        Si     0.283166666667     0.752900000000     0.824350000000     0          
T        Si     0.063566666667     0.807050000000     0.925200000000     0          
T        Si     0.151533333333     0.791000000000     0.781650000000     0          
T        Si     0.036533333333     0.809400000000     0.722650000000     0          
T        Si     0.218466666667     0.770150000000     0.750150000000     0          
T        Si     0.025900000000     0.778400000000     0.820000000000     0          
T        Si     0.032066666667     0.668150000000     0.854050000000     0          
T        Si     0.048766666667     0.666550000000     0.973800000000     0          
T        Si     0.065033333333     0.965050000000     0.726550000000     0          
T        Si     0.051700000000     0.503600000000     0.807650000000     0          
T        Si     0.050533333333     0.598750000000     0.856850000000     0          
T        Si     0.064933333333     0.596850000000     0.973100000000     0          
T        Si     0.333266666667     0.544400000000     0.850950000000     0          
T        Si     0.323133333333     0.701950000000     0.512400000000     0          
T        Si     0.087666666667     0.973650000000     0.912050000000     0          
T        Si     0.291166666667     0.748700000000     0.940450000000     0          
T        Si     0.216833333333     0.502900000000     0.925650000000     0          
T        Si     0.103100000000     0.557050000000     0.824800000000     0          
T        Si     0.015133333333     0.541000000000     0.968350000000     0          
T        Si     0.130133333333     0.559400000000     0.527350000000     0          
T        Si     0.281533333333     0.520150000000     0.999850000000     0          
T        Si     0.140766666667     0.528400000000     0.930000000000     0          
T        Si     0.532066666667     0.081850000000     0.104050000000     0          
T        Si     0.548766666667     0.083450000000     0.223800000000     0          
T        Si     0.565033333333     0.284950000000     0.476550000000     0          
T        Si     0.551700000000     0.246400000000     0.057650000000     0          
T        Si     0.550533333333     0.151250000000     0.106850000000     0          
T        Si     0.564933333333     0.153150000000     0.223100000000     0          
T        Si     0.499933333333     0.205600000000     0.100950000000     0          
T        Si     0.489800000000     0.048050000000     0.262400000000     0          
T        Si     0.587666666667     0.276350000000     0.162050000000     0          
T        Si     0.457833333333     0.001300000000     0.190450000000     0          
T        Si     0.383500000000     0.247100000000     0.175650000000     0          
T        Si     0.603100000000     0.192950000000     0.074800000000     0          
T        Si     0.515133333333     0.209000000000     0.218350000000     0          
T        Si     0.630133333333     0.190600000000     0.277350000000     0          
T        Si     0.448200000000     0.229850000000     0.249850000000     0          
T        Si     0.640766666667     0.221600000000     0.180000000000     0          
T        Si     0.634600000000     0.331850000000     0.145950000000     0          
T        Si     0.617900000000     0.333450000000     0.026200000000     0          
T        Si     0.601633333333     0.034950000000     0.273450000000     0          
T        Si     0.614966666667     0.496400000000     0.192350000000     0          
T        Si     0.616133333333     0.401250000000     0.143150000000     0          
T        Si     0.601733333333     0.403150000000     0.026900000000     0          
T        Si     0.333400000000     0.455600000000     0.149050000000     0          
T        Si     0.343533333333     0.298050000000     0.487600000000     0          
T        Si     0.579000000000     0.026350000000     0.087950000000     0          
T        Si     0.375500000000     0.251300000000     0.059550000000     0          
T        Si     0.449833333333     0.497100000000     0.074350000000     0          
T        Si     0.563566666667     0.442950000000     0.175200000000     0          
T        Si     0.651533333333     0.459000000000     0.031650000000     0          
T        Si     0.536533333333     0.440600000000     0.472650000000     0          
T        Si     0.385133333333     0.479850000000     0.000150000000     0          
T        Si     0.525900000000     0.471600000000     0.070000000000     0          
T        Si     0.467933333333     0.418150000000     0.395950000000     0          
T        Si     0.451233333333     0.416550000000     0.276200000000     0          
T        Si     0.434966666667     0.215050000000     0.023450000000     0          
T        Si     0.448300000000     0.253600000000     0.442350000000     0          
T        Si     0.449466666667     0.348750000000     0.393150000000     0          
T        Si     0.435066666667     0.346850000000     0.276900000000     0          
T        Si     0.500066666667     0.294400000000     0.399050000000     0          
T        Si     0.510200000000     0.451950000000     0.237600000000     0          
T        Si     0.412333333333     0.223650000000     0.337950000000     0          
T        Si     0.542166666667     0.498700000000     0.309550000000     0          
T        Si     0.616500000000     0.252900000000     0.324350000000     0          
T        Si     0.396900000000     0.307050000000     0.425200000000     0          
T        Si     0.484866666667     0.291000000000     0.281650000000     0          
T        Si     0.369866666667     0.309400000000     0.222650000000     0          
T        Si     0.551800000000     0.270150000000     0.250150000000     0          
T        Si     0.359233333333     0.278400000000     0.320000000000     0          
T        Si     0.365400000000     0.168150000000     0.354050000000     0          
T        Si     0.382100000000     0.166550000000     0.473800000000     0          
T        Si     0.398366666667     0.465050000000     0.226550000000     0          
T        Si     0.385033333333     0.003600000000     0.307650000000     0          
T        Si     0.383866666667     0.098750000000     0.356850000000     0          
T        Si     0.398266666667     0.096850000000     0.473100000000     0          
T        Si     0.666600000000     0.044400000000     0.350950000000     0          
T        Si     0.656466666667     0.201950000000     0.012400000000     0          
T        Si     0.421000000000     0.473650000000     0.412050000000     0          
T        Si     0.624500000000     0.248700000000     0.440450000000     0          
T        Si     0.550166666667     0.002900000000     0.425650000000     0          
T        Si     0.436433333333     0.057050000000     0.324800000000     0          
T        Si     0.348466666667     0.041000000000     0.468350000000     0          
T        Si     0.463466666667     0.059400000000     0.027350000000     0          
T        Si     0.614866666667     0.020150000000     0.499850000000     0          
T        Si     0.474100000000     0.028400000000     0.430000000000     0          
T        Si     0.532066666667     0.081850000000     0.604050000000     0          
T        Si     0.548766666667     0.083450000000     0.723800000000     0          
T        Si     0.565033333333     0.284950000000     0.976550000000     0          
T        Si     0.551700000000     0.246400000000     0.557650000000     0          
T        Si     0.550533333333     0.151250000000     0.606850000000     0          
T        Si     0.564933333333     0.153150000000     0.723100000000     0          
T        Si     0.499933333333     0.205600000000     0.600950000000     0          
T        Si     0.489800000000     0.048050000000     0.762400000000     0          
T        Si     0.587666666667     0.276350000000     0.662050000000     0          
T        Si     0.457833333333     0.001300000000     0.690450000000     0          
T        Si     0.383500000000     0.247100000000     0.675650000000     0          
T        Si     0.603100000000     0.192950000000     0.574800000000     0          
T        Si     0.515133333333     0.209000000000     0.718350000000     0          
T        Si     0.630133333333     0.190600000000     0.777350000000     0          
T        Si     0.448200000000     0.229850000000     0.749850000000     0          
T        Si     0.640766666667     0.221600000000     0.680000000000     0          
T        Si     0.634600000000     0.331850000000     0.645950000000     0          
T        Si     0.617900000000     0.333450000000     0.526200000000     0          
T        Si     0.601633333333     0.034950000000     0.773450000000     0          
T        Si     0.614966666667     0.496400000000     0.692350000000     0          
T        Si     0.616133333333     0.401250000000     0.643150000000     0          
T        Si     0.601733333333     0.403150000000     0.526900000000     0          
T        Si     0.333400000000     0.455600000000     0.649050000000     0          
T        Si     0.343533333333     0.298050000000     0.987600000000     0          
T        Si     0.579000000000     0.026350000000     0.587950000000     0          
T        Si     0.375500000000     0.251300000000     0.559550000000     0          
T        Si     0.449833333333     0.497100000000     0.574350000000     0          
T        Si     0.563566666667     0.442950000000     0.675200000000     0          
T        Si     0.651533333333     0.459000000000     0.531650000000     0          
T        Si     0.536533333333     0.440600000000     0.972650000000     0          
T        Si     0.385133333333     0.479850000000     0.500150000000     0          
T        Si     0.525900000000     0.471600000000     0.570000000000     0          
T        Si     0.467933333333     0.418150000000     0.895950000000     0          
T        Si     0.451233333333     0.416550000000     0.776200000000     0          
T        Si     0.434966666667     0.215050000000     0.523450000000     0          
T        Si     0.448300000000     0.253600000000     0.942350000000     0          
T        Si     0.449466666667     0.348750000000     0.893150000000     0          
T        Si     0.435066666667     0.346850000000     0.776900000000     0          
T        Si     0.500066666667     0.294400000000     0.899050000000     0          
T        Si     0.510200000000     0.451950000000     0.737600000000     0          
T        Si     0.412333333333     0.223650000000     0.837950000000     0          
T        Si     0.542166666667     0.498700000000     0.809550000000     0          
T        Si     0.616500000000     0.252900000000     0.824350000000     0          
T        Si     0.396900000000     0.307050000000     0.925200000000     0          
T        Si     0.484866666667     0.291000000000     0.781650000000     0          
T        Si     0.369866666667     0.309400000000     0.722650000000     0          
T        Si     0.551800000000     0.270150000000     0.750150000000     0          
T        Si     0.359233333333     0.278400000000     0.820000000000     0          
T        Si     0.365400000000     0.168150000000     0.854050000000     0          
T        Si     0.382100000000     0.166550000000     0.973800000000     0          
T        Si     0.398366666667     0.465050000000     0.726550000000     0          
T        Si     0.385033333333     0.003600000000     0.807650000000     0          
T        Si     0.383866666667     0.098750000000     0.856850000000     0          
T        Si     0.398266666667     0.096850000000     0.973100000000     0          
T        Si     0.666600000000     0.044400000000     0.850950000000     0          
T        Si     0.656466666667     0.201950000000     0.512400000000     0          
T        Si     0.421000000000     0.473650000000     0.912050000000     0          
T        Si     0.624500000000     0.248700000000     0.940450000000     0          
T        Si     0.550166666667     0.002900000000     0.925650000000     0          
T        Si     0.436433333333     0.057050000000     0.824800000000     0          
T        Si     0.348466666667     0.041000000000     0.968350000000     0          
T        Si     0.463466666667     0.059400000000     0.527350000000     0          
T        Si     0.614866666667     0.020150000000     0.999850000000     0          
T        Si     0.474100000000     0.028400000000     0.930000000000     0          
T        Si     0.532066666667     0.581850000000     0.104050000000     0          
T        Si     0.548766666667     0.583450000000     0.223800000000     0          
T        Si     0.565033333333     0.784950000000     0.476550000000     0          
T        Si     0.551700000000     0.746400000000     0.057650000000     0          
T        Si     0.550533333333     0.651250000000     0.106850000000     0          
T        Si     0.564933333333     0.653150000000     0.223100000000     0          
T        Si     0.499933333333     0.705600000000     0.100950000000     0          
T        Si     0.489800000000     0.548050000000     0.262400000000     0          
T        Si     0.587666666667     0.776350000000     0.162050000000     0          
T        Si     0.457833333333     0.501300000000     0.190450000000     0          
T        Si     0.383500000000     0.747100000000     0.175650000000     0          
T        Si     0.603100000000     0.692950000000     0.074800000000     0          
T        Si     0.515133333333     0.709000000000     0.218350000000     0          
T        Si     0.630133333333     0.690600000000     0.277350000000     0          
T        Si     0.448200000000     0.729850000000     0.249850000000     0          
T        Si     0.640766666667     0.721600000000     0.180000000000     0          
T        Si     0.634600000000     0.831850000000     0.145950000000     0          
T        Si     0.617900000000     0.833450000000     0.026200000000     0          
T        Si     0.601633333333     0.534950000000     0.273450000000     0          
T        Si     0.614966666667     0.996400000000     0.192350000000     0          
T        Si     0.616133333333     0.901250000000     0.143150000000     0          
T        Si     0.601733333333     0.903150000000     0.026900000000     0          
T        Si     0.333400000000     0.955600000000     0.149050000000     0          
T        Si     0.343533333333     0.798050000000     0.487600000000     0          
T        Si     0.579000000000     0.526350000000     0.087950000000     0          
T        Si     0.375500000000     0.751300000000     0.059550000000     0          
T        Si     0.449833333333     0.997100000000     0.074350000000     0          
T        Si     0.563566666667     0.942950000000     0.175200000000     0          
T        Si     0.651533333333     0.959000000000     0.031650000000     0          
T        Si     0.536533333333     0.940600000000     0.472650000000     0          
T        Si     0.385133333333     0.979850000000     0.000150000000     0          
T        Si     0.525900000000     0.971600000000     0.070000000000     0          
T        Si     0.467933333333     0.918150000000     0.395950000000     0          
T        Si     0.451233333333     0.916550000000     0.276200000000     0          
T        Si     0.434966666667     0.715050000000     0.023450000000     0          
T        Si     0.448300000000     0.753600000000     0.442350000000     0          
T        Si     0.449466666667     0.848750000000     0.393150000000     0          
T        Si     0.435066666667     0.846850000000     0.276900000000     0          
T        Si     0.500066666667     0.794400000000     0.399050000000     0          
T        Si     0.510200000000     0.951950000000     0.237600000000     0          
T        Si     0.412333333333     0.723650000000     0.337950000000     0          
T        Si     0.542166666667     0.998700000000     0.309550000000     0          
T        Si     0.616500000000     0.752900000000     0.324350000000     0          
T        Si     0.396900000000     0.807050000000     0.425200000000     0          
T        Si     0.484866666667     0.791000000000     0.281650000000     0          
T        Si     0.369866666667     0.809400000000     0.222650000000     0          
T        Si     0.551800000000     0.770150000000     0.250150000000     0          
T        Si     0.359233333333     0.778400000000     0.320000000000     0          
T        Si     0.365400000000     0.668150000000     0.354050000000     0          
T        Si     0.382100000000     0.666550000000     0.473800000000     0          
T        Si     0.398366666667     0.965050000000     0.226550000000     0          
T        Si     0.385033333333     0.503600000000     0.307650000000     0          
T        Si     0.383866666667     0.598750000000     0.356850000000     0          
T        Si     0.398266666667     0.596850000000     0.473100000000     0          
T        Si     0.666600000000     0.544400000000     0.350950000000     0          
T        Si     0.656466666667     0.701950000000     0.012400000000     0          
T        Si     0.421000000000     0.973650000000     0.412050000000     0          
T        Si     0.624500000000     0.748700000000     0.440450000000     0          
T        Si     0.550166666667     0.502900000000     0.425650000000     0          
T        Si     0.436433333333     0.557050000000     0.324800000000     0          
T        Si     0.348466666667     0.541000000000     0.468350000000     0          
T        Si     0.463466666667     0.559400000000     0.027350000000     0          
T        Si     0.614866666667     0.520150000000     0.499850000000     0          
T        Si     0.474100000000     0.528400000000     0.430000000000     0          
T        Si     0.532066666667     0.581850000000     0.604050000000     0          
T        Si     0.548766666667     0.583450000000     0.723800000000     0          
T        Si     0.565033333333     0.784950000000     0.976550000000     0          
T        Si     0.551700000000     0.746400000000     0.557650000000     0          
T        Si     0.550533333333     0.651250000000     0.606850000000     0          
T        Si     0.564933333333     0.653150000000     0.723100000000     0          
T        Si     0.499933333333     0.705600000000     0.600950000000     0          
T        Si     0.489800000000     0.548050000000     0.762400000000     0          
T        Si     0.587666666667     0.776350000000     0.662050000000     0          
T        Si     0.457833333333     0.501300000000     0.690450000000     0          
T        Si     0.383500000000     0.747100000000     0.675650000000     0          
T        Si     0.603100000000     0.692950000000     0.574800000000     0          
T        Si     0.515133333333     0.709000000000     0.718350000000     0          
T        Si     0.630133333333     0.690600000000     0.777350000000     0          
T        Si     0.448200000000     0.729850000000     0.749850000000     0          
T        Si     0.640766666667     0.721600000000     0.680000000000     0          
T        Si     0.634600000000     0.831850000000     0.645950000000     0          
T        Si     0.617900000000     0.833450000000     0.526200000000     0          
T        Si     0.601633333333     0.534950000000     0.773450000000     0          
T        Si     0.614966666667     0.996400000000     0.692350000000     0          
T        Si     0.616133333333     0.901250000000     0.643150000000     0          
T        Si     0.601733333333     0.903150000000     0.526900000000     0          
T        Si     0.333400000000     0.955600000000     0.649050000000     0          
T        Si     0.343533333333     0.798050000000     0.987600000000     0          
T        Si     0.579000000000     0.526350000000     0.587950000000     0          
T        Si     0.375500000000     0.751300000000     0.559550000000     0          
T        Si     0.449833333333     0.997100000000     0.574350000000     0          
T        Si     0.563566666667     0.942950000000     0.675200000000     0          
T        Si     0.651533333333     0.959000000000     0.531650000000     0          
T        Si     0.536533333333     0.940600000000     0.972650000000     0          
T        Si     0.385133333333     0.979850000000     0.500150000000     0          
T        Si     0.525900000000     0.971600000000     0.570000000000     0          
T        Si     0.467933333333     0.918150000000     0.895950000000     0          
T        Si     0.451233333333     0.916550000000     0.776200000000     0          
T        Si     0.434966666667     0.715050000000     0.523450000000     0          
T        Si     0.448300000000     0.753600000000     0.942350000000     0          
T        Si     0.449466666667     0.848750000000     0.893150000000     0          
T        Si     0.435066666667     0.846850000000     0.776900000000     0          
T        Si     0.500066666667     0.794400000000     0.899050000000     0          
T        Si     0.510200000000     0.951950000000     0.737600000000     0          
T        Si     0.412333333333     0.723650000000     0.837950000000     0          
T        Si     0.542166666667     0.998700000000     0.809550000000     0          
T        Si     0.616500000000     0.752900000000     0.824350000000     0          
T        Si     0.396900000000     0.807050000000     0.925200000000     0          
T        Si     0.484866666667     0.791000000000     0.781650000000     0          
T        Si     0.369866666667     0.809400000000     0.722650000000     0          
T        Si     0.551800000000     0.770150000000     0.750150000000     0          
T        Si     0.359233333333     0.778400000000     0.820000000000     0          
T        Si     0.365400000000     0.668150000000     0.854050000000     0          
T        Si     0.382100000000     0.666550000000     0.973800000000     0          
T        Si     0.398366666667     0.965050000000     0.726550000000     0          
T        Si     0.385033333333     0.503600000000     0.807650000000     0          
T        Si     0.383866666667     0.598750000000     0.856850000000     0          
T        Si     0.398266666667     0.596850000000     0.973100000000     0          
T        Si     0.666600000000     0.544400000000     0.850950000000     0          
T        Si     0.656466666667     0.701950000000     0.512400000000     0          
T        Si     0.421000000000     0.973650000000     0.912050000000     0          
T        Si     0.624500000000     0.748700000000     0.940450000000     0          
T        Si     0.550166666667     0.502900000000     0.925650000000     0          
T        Si     0.436433333333     0.557050000000     0.824800000000     0          
T        Si     0.348466666667     0.541000000000     0.968350000000     0          
T        Si     0.463466666667     0.559400000000     0.527350000000     0          
T        Si     0.614866666667     0.520150000000     0.999850000000     0          
T        Si     0.474100000000     0.528400000000     0.930000000000     0          
T        Si     0.865400000000     0.081850000000     0.104050000000     0          
T        Si     0.882100000000     0.083450000000     0.223800000000     0          
T        Si     0.898366666667     0.284950000000     0.476550000000     0          
T        Si     0.885033333333     0.246400000000     0.057650000000     0          
T        Si     0.883866666667     0.151250000000     0.106850000000     0          
T        Si     0.898266666667     0.153150000000     0.223100000000     0          
T        Si     0.833266666667     0.205600000000     0.100950000000     0          
T        Si     0.823133333333     0.048050000000     0.262400000000     0          
T        Si     0.921000000000     0.276350000000     0.162050000000     0          
T        Si     0.791166666667     0.001300000000     0.190450000000     0          
T        Si     0.716833333333     0.247100000000     0.175650000000     0          
T        Si     0.936433333333     0.192950000000     0.074800000000     0          
T        Si     0.848466666667     0.209000000000     0.218350000000     0          
T        Si     0.963466666667     0.190600000000     0.277350000000     0          
T        Si     0.781533333333     0.229850000000     0.249850000000     0          
T        Si     0.974100000000     0.221600000000     0.180000000000     0          
T        Si     0.967933333333     0.331850000000     0.145950000000     0          
T        Si     0.951233333333     0.333450000000     0.026200000000     0          
T        Si     0.934966666667     0.034950000000     0.273450000000     0          
T        Si     0.948300000000     0.496400000000     0.192350000000     0          
T        Si     0.949466666667     0.401250000000     0.143150000000     0          
T        Si     0.935066666667     0.403150000000     0.026900000000     0          
T        Si     0.666733333333     0.455600000000     0.149050000000     0          
T        Si     0.676866666667     0.298050000000     0.487600000000     0          
T        Si     0.912333333333     0.026350000000     0.087950000000     0          
T        Si     0.708833333333     0.251300000000     0.059550000000     0          
T        Si     0.783166666667     0.497100000000     0.074350000000     0          
T        Si     0.896900000000     0.442950000000     0.175200000000     0          
T        Si     0.984866666667     0.459000000000     0.031650000000     0          
T        Si     0.869866666667     0.440600000000     0.472650000000     0          
T        Si     0.718466666667     0.479850000000     0.000150000000     0          
T        Si     0.859233333333     0.471600000000     0.070000000000     0          
T        Si     0.801266666667     0.418150000000     0.395950000000     0          
T        Si     0.784566666667     0.416550000000     0.276200000000     0          
T        Si     0.768300000000     0.215050000000     0.023450000000     0          
T        Si     0.781633333333     0.253600000000     0.442350000000     0          
T        Si     0.782800000000     0.348750000000     0.393150000000     0          
T        Si     0.768400000000     0.346850000000     0.276900000000     0          
T        Si     0.833400000000     0.294400000000     0.399050000000     0          
T        Si     0.843533333333     0.451950000000     0.237600000000     0          
T        Si     0.745666666667     0.223650000000     0.337950000000     0          
T        Si     0.875500000000     0.498700000000     0.309550000000     0          
T        Si     0.949833333333     0.252900000000     0.324350000000     0          
T        Si     0.730233333333     0.307050000000     0.425200000000     0          
T        Si     0.818200000000     0.291000000000     0.281650000000     0          
T        Si     0.703200000000     0.309400000000     0.222650000000     0          
T        Si     0.885133333333     0.270150000000     0.250150000000     0          
T        Si     0.692566666667     0.278400000000     0.320000000000     0          
T        Si     0.698733333333     0.168150000000     0.354050000000     0          
T        Si     0.715433333333     0.166550000000     0.473800000000     0          
T        Si     0.731700000000     0.465050000000     0.226550000000     0          
T        Si     0.718366666667     0.003600000000     0.307650000000     0          
T        Si     0.717200000000     0.098750000000     0.356850000000     0          
T        Si     0.731600000000     0.096850000000     0.473100000000     0          
T        Si     0.999933333333     0.044400000000     0.350950000000     0          
T        Si     0.989800000000     0.201950000000     0.012400000000     0          
T        Si     0.754333333333     0.473650000000     0.412050000000     0          
T        Si     0.957833333333     0.248700000000     0.440450000000     0          
T        Si     0.883500000000     0.002900000000     0.425650000000     0          
T        Si     0.769766666667     0.057050000000     0.324800000000     0          
T        Si     0.681800000000     0.041000000000     0.468350000000     0          
T        Si     0.796800000000     0.059400000000     0.027350000000     0          
T        Si     0.948200000000     0.020150000000     0.499850000000     0          
T        Si     0.807433333333     0.028400000000     0.430000000000     0          
T        Si     0.865400000000     0.081850000000     0.604050000000     0          
T        Si     0.882100000000     0.083450000000     0.723800000000     0          
T        Si     0.898366666667     0.284950000000     0.976550000000     0          
T        Si     0.885033333333     0.246400000000     0.557650000000     0          
T        Si     0.883866666667     0.151250000000     0.606850000000     0          
T        Si     0.898266666667     0.153150000000     0.723100000000     0          
T        Si     0.833266666667     0.205600000000     0.600950000000     0          
T        Si     0.823133333333     0.048050000000     0.762400000000     0          
T        Si     0.921000000000     0.276350000000     0.662050000000     0          
T        Si     0.791166666667     0.001300000000     0.690450000000     0          
T        Si     0.716833333333     0.247100000000     0.675650000000     0          
T        Si     0.936433333333     0.192950000000     0.574800000000     0          
T        Si     0.848466666667     0.209000000000     0.718350000000     0          
T        Si     0.963466666667     0.190600000000     0.777350000000     0          
T        Si     0.781533333333     0.229850000000     0.749850000000     0          
T        Si     0.974100000000     0.221600000000     0.680000000000     0          
T        Si     0.967933333333     0.331850000000     0.645950000000     0          
T        Si     0.951233333333     0.333450000000     0.526200000000     0          
T        Si     0.934966666667     0.034950000000     0.773450000000     0          
T        Si     0.948300000000     0.496400000000     0.692350000000     0          
T        Si     0.949466666667     0.401250000000     0.643150000000     0          
T        Si     0.935066666667     0.403150000000     0.526900000000     0          
T        Si     0.666733333333     0.455600000000     0.649050000000     0          
T        Si     0.676866666667     0.298050000000     0.987600000000     0          
T        Si     0.912333333333     0.026350000000     0.587950000000     0          
T        Si     0.708833333333     0.251300000000     0.559550000000     0          
T        Si     0.783166666667     0.497100000000     0.574350000000     0          
T        Si     0.896900000000     0.442950000000     0.675200000000     0          
T        Si     0.984866666667     0.459000000000     0.531650000000     0          
T        Si     0.869866666667     0.440600000000     0.972650000000     0          
T        Si     0.718466666667     0.479850000000     0.500150000000     0          
T        Si     0.859233333333     0.471600000000     0.570000000000     0          
T        Si     0.801266666667     0.418150000000     0.895950000000     0          
T        Si     0.784566666667     0.416550000000     0.776200000000     0          
T        Si     0.768300000000     0.215050000000     0.523450000000     0          
T        Si     0.781633333333     0.253600000000     0.942350000000     0          
T        Si     0.782800000000     0.348750000000     0.893150000000     0          
T        Si     0.768400000000     0.346850000000     0.776900000000     0          
T        Si     0.833400000000     0.294400000000     0.899050000000     0          
T        Si     0.843533333333     0.451950000000     0.737600000000     0          
T        Si     0.745666666667     0.223650000000     0.837950000000     0          
T        Si     0.875500000000     0.498700000000     0.809550000000     0          
T        Si     0.949833333333     0.252900000000     0.824350000000     0          
T        Si     0.730233333333     0.307050000000     0.925200000000     0          
T        Si     0.818200000000     0.291000000000     0.781650000000     0          
T        Si     0.703200000000     0.309400000000     0.722650000000     0          
T        Si     0.885133333333     0.270150000000     0.750150000000     0          
T        Si     0.692566666667     0.278400000000     0.820000000000     0          
T        Si     0.698733333333     0.168150000000     0.854050000000     0          
T        Si     0.715433333333     0.166550000000     0.973800000000     0          
T        Si     0.731700000000     0.465050000000     0.726550000000     0          
T        Si     0.718366666667     0.003600000000     0.807650000000     0          
T        Si     0.717200000000     0.098750000000     0.856850000000     0          
T        Si     0.731600000000     0.096850000000     0.973100000000     0          
T        Si     0.999933333333     0.044400000000     0.850950000000     0          
T        Si     0.989800000000     0.201950000000     0.512400000000     0          
T        Si     0.754333333333     0.473650000000     0.912050000000     0          
T        Si     0.957833333333     0.248700000000     0.940450000000     0          
T        Si     0.883500000000     0.002900000000     0.925650000000     0          
T        Si     0.769766666667     0.057050000000     0.824800000000     0          
T        Si     0.681800000000     0.041000000000     0.968350000000     0          
T        Si     0.796800000000     0.059400000000     0.527350000000     0          
T        Si     0.948200000000     0.020150000000     0.999850000000     0          
T        Si     0.807433333333     0.028400000000     0.930000000000     0          
T        Si     0.865400000000     0.581850000000     0.104050000000     0          
T        Si     0.882100000000     0.583450000000     0.223800000000     0          
T        Si     0.898366666667     0.784950000000     0.476550000000     0          
T        Si     0.885033333333     0.746400000000     0.057650000000     0          
T        Si     0.883866666667     0.651250000000     0.106850000000     0          
T        Si     0.898266666667     0.653150000000     0.223100000000     0          
T        Si     0.833266666667     0.705600000000     0.100950000000     0          
T        Si     0.823133333333     0.548050000000     0.262400000000     0          
T        Si     0.921000000000     0.776350000000     0.162050000000     0          
T        Si     0.791166666667     0.501300000000     0.190450000000     0          
T        Si     0.716833333333     0.747100000000     0.175650000000     0          
T        Si     0.936433333333     0.692950000000     0.074800000000     0          
T        Si     0.848466666667     0.709000000000     0.218350000000     0          
T        Si     0.963466666667     0.690600000000     0.277350000000     0          
T        Si     0.781533333333     0.729850000000     0.249850000000     0          
T        Si     0.974100000000     0.721600000000     0.180000000000     0          
T        Si     0.967933333333     0.831850000000     0.145950000000     0          
T        Si     0.951233333333     0.833450000000     0.026200000000     0          
T        Si     0.934966666667     0.534950000000     0.273450000000     0          
T        Si     0.948300000000     0.996400000000     0.192350000000     0          
T        Si     0.949466666667     0.901250000000     0.143150000000     0          
T        Si     0.935066666667     0.903150000000     0.026900000000     0          
T        Si     0.666733333333     0.955600000000     0.149050000000     0          
T        Si     0.676866666667     0.798050000000     0.487600000000     0          
T        Si     0.912333333333     0.526350000000     0.087950000000     0          
T        Si     0.708833333333     0.751300000000     0.059550000000     0          
T        Si     0.783166666667     0.997100000000     0.074350000000     0          
T        Si     0.896900000000     0.942950000000     0.175200000000     0          
T        Si     0.984866666667     0.959000000000     0.031650000000     0          
T        Si     0.869866666667     0.940600000000     0.472650000000     0          
T        Si     0.718466666667     0.979850000000     0.000150000000     0          
T        Si     0.859233333333     0.971600000000     0.070000000000     0          
T        Si     0.801266666667     0.918150000000     0.395950000000     0          
T        Si     0.784566666667     0.916550000000     0.276200000000     0          
T        Si     0.768300000000     0.715050000000     0.023450000000     0          
T        Si     0.781633333333     0.753600000000     0.442350000000     0          
T        Si     0.782800000000     0.848750000000     0.393150000000     0          
T        Si     0.768400000000     0.846850000000     0.276900000000     0          
T        Si     0.833400000000     0.794400000000     0.399050000000     0          
T        Si     0.843533333333     0.951950000000     0.237600000000     0          
T        Si     0.745666666667     0.723650000000     0.337950000000     0          
T        Si     0.875500000000     0.998700000000     0.309550000000     0          
T        Si     0.949833333333     0.752900000000     0.324350000000     0          
T        Si     0.730233333333     0.807050000000     0.425200000000     0          
T        Si     0.818200000000     0.791000000000     0.281650000000     0          
T        Si     0.703200000000     0.809400000000     0.222650000000     0          
T        Si     0.885133333333     0.770150000000     0.250150000000     0          
T        Si     0.692566666667     0.778400000000     0.320000000000     0          
T        Si     0.698733333333     0.668150000000     0.354050000000     0          
T        Si     0.715433333333     0.666550000000     0.473800000000     0          
T        Si     0.731700000000     0.965050000000     0.226550000000     0          
T        Si     0.718366666667     0.503600000000     0.307650000000     0          
T        Si     0.717200000000     0.598750000000     0.356850000000     0          
T        Si     0.731600000000     0.596850000000     0.473100000000     0          
T        Si     0.999933333333     0.544400000000     0.350950000000     0          
T        Si     0.989800000000     0.701950000000     0.012400000000     0          
T        Si     0.754333333333     0.973650000000     0.412050000000     0          
T        Si     0.957833333333     0.748700000000     0.440450000000     0          
T        Si     0.883500000000     0.502900000000     0.425650000000     0          
T        Si     0.769766666667     0.557050000000     0.324800000000     0          
T        Si     0.681800000000     0.541000000000     0.468350000000     0          
T        Si     0.796800000000     0.559400000000     0.027350000000     0          
T        Si     0.948200000000     0.520150000000     0.499850000000     0          
T        Si     0.807433333333     0.528400000000     0.430000000000     0          
T        Si     0.865400000000     0.581850000000     0.604050000000     0          
T        Si     0.882100000000     0.583450000000     0.723800000000     0          
T        Si     0.898366666667     0.784950000000     0.976550000000     0          
T        Si     0.885033333333     0.746400000000     0.557650000000     0          
T        Si     0.883866666667     0.651250000000     0.606850000000     0          
T        Si     0.898266666667     0.653150000000     0.723100000000     0          
T        Si     0.833266666667     0.705600000000     0.600950000000     0          
T        Si     0.823133333333     0.548050000000     0.762400000000     0          
T        Si     0.921000000000     0.776350000000     0.662050000000     0          
T        Si     0.791166666667     0.501300000000     0.690450000000     0          
T        Si     0.716833333333     0.747100000000     0.675650000000     0          
T        Si     0.936433333333     0.692950000000     0.574800000000     0          
T        Si     0.848466666667     0.709000000000     0.718350000000     0          
T        Si     0.963466666667     0.690600000000     0.777350000000     0          
T        Si     0.781533333333     0.729850000000     0.749850000000     0          
T        Si     0.974100000000     0.721600000000     0.680000000000     0          
T        Si     0.967933333333     0.831850000000     0.645950000000     0          
T        Si     0.951233333333     0.833450000000     0.526200000000     0          
T        Si     0.934966666667     0.534950000000     0.773450000000     0          
T        Si     0.948300000000     0.996400000000     0.692350000000     0          
T        Si     0.949466666667     0.901250000000     0.643150000000     0          
T        Si     0.935066666667     0.903150000000     0.526900000000     0          
T        Si     0.666733333333     0.955600000000     0.649050000000     0          
T        Si     0.676866666667     0.798050000000     0.987600000000     0          
T        Si     0.912333333333     0.526350000000     0.587950000000     0          
T        Si     0.708833333333     0.751300000000     0.559550000000     0          
T        Si     0.783166666667     0.997100000000     0.574350000000     0          
T        Si     0.896900000000     0.942950000000     0.675200000000     0          
T        Si     0.984866666667     0.959000000000     0.531650000000     0          
T        Si     0.869866666667     0.940600000000     0.972650000000     0          
T        Si     0.718466666667     0.979850000000     0.500150000000     0          
T        Si     0.859233333333     0.971600000000     0.570000000000     0          
T        Si     0.801266666667     0.918150000000     0.895950000000     0          
T        Si     0.784566666667     0.916550000000     0.776200000000     0          
T        Si     0.768300000000     0.715050000000     0.523450000000     0          
T        Si     0.781633333333     0.753600000000     0.942350000000     0          
T        Si     0.782800000000     0.848750000000     0.893150000000     0          
T        Si     0.768400000000     0.846850000000     0.776900000000     0          
T        Si     0.833400000000     0.794400000000     0.899050000000     0          
T        Si     0.843533333333     0.951950000000     0.737600000000     0          
T        Si     0.745666666667     0.723650000000     0.837950000000     0          
T        Si     0.875500000000     0.998700000000     0.809550000000     0          
T        Si     0.949833333333     0.752900000000     0.824350000000     0          
T        Si     0.730233333333     0.807050000000     0.925200000000     0          
T        Si     0.818200000000     0.791000000000     0.781650000000     0          
T        Si     0.703200000000     0.809400000000     0.722650000000     0          
T        Si     0.885133333333     0.770150000000     0.750150000000     0          
T        Si     0.692566666667     0.778400000000     0.820000000000     0          
T        Si     0.698733333333     0.668150000000     0.854050000000     0          
T        Si     0.715433333333     0.666550000000     0.973800000000     0          
T        Si     0.731700000000     0.965050000000     0.726550000000     0          
T        Si     0.718366666667     0.503600000000     0.807650000000     0          
T        Si     0.717200000000     0.598750000000     0.856850000000     0          
T        Si     0.731600000000     0.596850000000     0.973100000000     0          
T        Si     0.999933333333     0.544400000000     0.850950000000     0          
T        Si     0.989800000000     0.701950000000     0.512400000000     0          
T        Si     0.754333333333     0.973650000000     0.912050000000     0          
T        Si     0.957833333333     0.748700000000     0.940450000000     0          
T        Si     0.883500000000     0.502900000000     0.925650000000     0          
T        Si     0.769766666667     0.557050000000     0.824800000000     0          
T        Si     0.681800000000     0.541000000000     0.968350000000     0          
T        Si     0.796800000000     0.559400000000     0.527350000000     0          
T        Si     0.948200000000     0.520150000000     0.999850000000     0          
T        Si     0.807433333333     0.528400000000     0.930000000000     0          
O        O      0.207166666667     0.267300000000     0.007750000000     0          
O        O      0.201066666667     0.079400000000     0.163850000000     0          
O        O      0.289333333333     0.201100000000     0.131950000000     0          
O        O      0.222500000000     0.119000000000     0.238150000000     0          
O        O      0.186800000000     0.070600000000     0.252950000000     0          
O        O      0.243466666667     0.164550000000     0.074150000000     0          
O        O      0.247400000000     0.222050000000     0.049250000000     0          
O        O      0.207266666667     0.116450000000     0.090400000000     0          
O        O      0.145600000000     0.208850000000     0.237150000000     0          
O        O      0.312966666667     0.200950000000     0.230350000000     0          
O        O      0.131466666667     0.065950000000     0.292500000000     0          
O        O      0.184666666667     0.228850000000     0.068400000000     0          
O        O      0.208366666667     0.295100000000     0.422350000000     0          
O        O      0.251400000000     0.064600000000     0.242100000000     0          
O        O      0.174066666667     0.216700000000     0.158900000000     0          
O        O      0.133700000000     0.035900000000     0.209100000000     0          
O        O      0.235000000000     0.267900000000     0.104950000000     0          
O        O      0.226600000000     0.059000000000     0.088000000000     0          
O        O      0.160166666667     0.072650000000     0.072750000000     0          
O        O      0.200233333333     0.175950000000     0.228050000000     0          
O        O      0.173800000000     0.019200000000     0.295650000000     0          
O        O      0.079233333333     0.224400000000     0.207750000000     0          
O        O      0.262400000000     0.262300000000     0.468600000000     0          
O        O      0.225300000000     0.279050000000     0.195600000000     0          
O        O      0.054333333333     0.280100000000     0.202650000000     0          
O        O      0.236400000000     0.152800000000     0.165750000000     0          
O        O      0.182166666667     0.171750000000     0.097550000000     0          
O        O      0.282533333333     0.250300000000     0.184600000000     0          
O        O      0.011500000000     0.233750000000     0.172850000000     0          
O        O      0.109466666667     0.000650000000     0.130250000000     0          
O        O      0.267533333333     0.164500000000     0.259700000000     0          
O        O      0.207366666667     0.234650000000     0.249550000000     0          
O        O      0.292833333333     0.017300000000     0.242250000000     0          
O        O      0.298933333333     0.329400000000     0.086150000000     0          
O        O      0.210666666667     0.451100000000     0.118050000000     0          
O        O      0.277500000000     0.369000000000     0.011850000000     0          
O        O      0.313200000000     0.320600000000     0.497050000000     0          
O        O      0.256533333333     0.414550000000     0.175850000000     0          
O        O      0.252600000000     0.472050000000     0.200750000000     0          
O        O      0.292733333333     0.366450000000     0.159600000000     0          
O        O      0.021066666667     0.458850000000     0.012850000000     0          
O        O      0.187033333333     0.450950000000     0.019650000000     0          
O        O      0.035200000000     0.315950000000     0.457500000000     0          
O        O      0.315333333333     0.478850000000     0.181600000000     0          
O        O      0.291633333333     0.045100000000     0.327650000000     0          
O        O      0.248600000000     0.314600000000     0.007900000000     0          
O        O      0.325933333333     0.466700000000     0.091100000000     0          
O        O      0.032966666667     0.285900000000     0.040900000000     0          
O        O      0.265000000000     0.017900000000     0.145050000000     0          
O        O      0.273400000000     0.309000000000     0.162000000000     0          
O        O      0.006500000000     0.322650000000     0.177250000000     0          
O        O      0.299766666667     0.425950000000     0.021950000000     0          
O        O      0.326200000000     0.269200000000     0.454350000000     0          
O        O      0.087433333333     0.474400000000     0.042250000000     0          
O        O      0.237600000000     0.012300000000     0.281400000000     0          
O        O      0.274700000000     0.029050000000     0.054400000000     0          
O        O      0.112333333333     0.030100000000     0.047350000000     0          
O        O      0.263600000000     0.402800000000     0.084250000000     0          
O        O      0.317833333333     0.421750000000     0.152450000000     0          
O        O      0.217466666667     0.000300000000     0.065400000000     0          
O        O      0.155166666667     0.483750000000     0.077150000000     0          
O        O      0.057200000000     0.250650000000     0.119750000000     0          
O        O      0.232466666667     0.414500000000     0.490300000000     0          
O        O      0.292633333333     0.484650000000     0.000450000000     0          
O        O      0.126166666667     0.232700000000     0.492250000000     0          
O        O      0.132266666667     0.420600000000     0.336150000000     0          
O        O      0.044000000000     0.298900000000     0.368050000000     0          
O        O      0.110833333333     0.381000000000     0.261850000000     0          
O        O      0.146533333333     0.429400000000     0.247050000000     0          
O        O      0.089866666667     0.335450000000     0.425850000000     0          
O        O      0.085933333333     0.277950000000     0.450750000000     0          
O        O      0.126066666667     0.383550000000     0.409600000000     0          
O        O      0.187733333333     0.291150000000     0.262850000000     0          
O        O      0.020366666667     0.299050000000     0.269650000000     0          
O        O      0.201866666667     0.434050000000     0.207500000000     0          
O        O      0.148666666667     0.271150000000     0.431600000000     0          
O        O      0.124966666667     0.204900000000     0.077650000000     0          
O        O      0.081933333333     0.435400000000     0.257900000000     0          
O        O      0.159266666667     0.283300000000     0.341100000000     0          
O        O      0.199633333333     0.464100000000     0.290900000000     0          
O        O      0.098333333333     0.232100000000     0.395050000000     0          
O        O      0.106733333333     0.441000000000     0.412000000000     0          
O        O      0.173166666667     0.427350000000     0.427250000000     0          
O        O      0.133100000000     0.324050000000     0.271950000000     0          
O        O      0.159533333333     0.480800000000     0.204350000000     0          
O        O      0.254100000000     0.275600000000     0.292250000000     0          
O        O      0.070933333333     0.237700000000     0.031400000000     0          
O        O      0.108033333333     0.220950000000     0.304400000000     0          
O        O      0.279000000000     0.219900000000     0.297350000000     0          
O        O      0.096933333333     0.347200000000     0.334250000000     0          
O        O      0.151166666667     0.328250000000     0.402450000000     0          
O        O      0.050800000000     0.249700000000     0.315400000000     0          
O        O      0.321833333333     0.266250000000     0.327150000000     0          
O        O      0.223866666667     0.499350000000     0.369750000000     0          
O        O      0.065800000000     0.335500000000     0.240300000000     0          
O        O      0.125966666667     0.265350000000     0.250450000000     0          
O        O      0.040500000000     0.482700000000     0.257750000000     0          
O        O      0.034400000000     0.170600000000     0.413850000000     0          
O        O      0.122666666667     0.048900000000     0.381950000000     0          
O        O      0.055833333333     0.131000000000     0.488150000000     0          
O        O      0.020133333333     0.179400000000     0.002950000000     0          
O        O      0.076800000000     0.085450000000     0.324150000000     0          
O        O      0.080733333333     0.027950000000     0.299250000000     0          
O        O      0.040600000000     0.133550000000     0.340400000000     0          
O        O      0.312266666667     0.041150000000     0.487150000000     0          
O        O      0.146300000000     0.049050000000     0.480350000000     0          
O        O      0.298133333333     0.184050000000     0.042500000000     0          
O        O      0.018000000000     0.021150000000     0.318400000000     0          
O        O      0.041700000000     0.454900000000     0.172350000000     0          
O        O      0.084733333333     0.185400000000     0.492100000000     0          
O        O      0.007400000000     0.033300000000     0.408900000000     0          
O        O      0.300366666667     0.214100000000     0.459100000000     0          
O        O      0.068333333333     0.482100000000     0.354950000000     0          
O        O      0.059933333333     0.191000000000     0.338000000000     0          
O        O      0.326833333333     0.177350000000     0.322750000000     0          
O        O      0.033566666667     0.074050000000     0.478050000000     0          
O        O      0.007133333333     0.230800000000     0.045650000000     0          
O        O      0.245900000000     0.025600000000     0.457750000000     0          
O        O      0.095733333333     0.487700000000     0.218600000000     0          
O        O      0.058633333333     0.470950000000     0.445600000000     0          
O        O      0.221000000000     0.469900000000     0.452650000000     0          
O        O      0.069733333333     0.097200000000     0.415750000000     0          
O        O      0.015500000000     0.078250000000     0.347550000000     0          
O        O      0.115866666667     0.499700000000     0.434600000000     0          
O        O      0.178166666667     0.016250000000     0.422850000000     0          
O        O      0.276133333333     0.249350000000     0.380250000000     0          
O        O      0.100866666667     0.085500000000     0.009700000000     0          
O        O      0.040700000000     0.015350000000     0.499550000000     0          
O        O      0.207166666667     0.267300000000     0.507750000000     0          
O        O      0.201066666667     0.079400000000     0.663850000000     0          
O        O      0.289333333333     0.201100000000     0.631950000000     0          
O        O      0.222500000000     0.119000000000     0.738150000000     0          
O        O      0.186800000000     0.070600000000     0.752950000000     0          
O        O      0.243466666667     0.164550000000     0.574150000000     0          
O        O      0.247400000000     0.222050000000     0.549250000000     0          
O        O      0.207266666667     0.116450000000     0.590400000000     0          
O        O      0.145600000000     0.208850000000     0.737150000000     0          
O        O      0.312966666667     0.200950000000     0.730350000000     0          
O        O      0.131466666667     0.065950000000     0.792500000000     0          
O        O      0.184666666667     0.228850000000     0.568400000000     0          
O        O      0.208366666667     0.295100000000     0.922350000000     0          
O        O      0.251400000000     0.064600000000     0.742100000000     0          
O        O      0.174066666667     0.216700000000     0.658900000000     0          
O        O      0.133700000000     0.035900000000     0.709100000000     0          
O        O      0.235000000000     0.267900000000     0.604950000000     0          
O        O      0.226600000000     0.059000000000     0.588000000000     0          
O        O      0.160166666667     0.072650000000     0.572750000000     0          
O        O      0.200233333333     0.175950000000     0.728050000000     0          
O        O      0.173800000000     0.019200000000     0.795650000000     0          
O        O      0.079233333333     0.224400000000     0.707750000000     0          
O        O      0.262400000000     0.262300000000     0.968600000000     0          
O        O      0.225300000000     0.279050000000     0.695600000000     0          
O        O      0.054333333333     0.280100000000     0.702650000000     0          
O        O      0.236400000000     0.152800000000     0.665750000000     0          
O        O      0.182166666667     0.171750000000     0.597550000000     0          
O        O      0.282533333333     0.250300000000     0.684600000000     0          
O        O      0.011500000000     0.233750000000     0.672850000000     0          
O        O      0.109466666667     0.000650000000     0.630250000000     0          
O        O      0.267533333333     0.164500000000     0.759700000000     0          
O        O      0.207366666667     0.234650000000     0.749550000000     0          
O        O      0.292833333333     0.017300000000     0.742250000000     0          
O        O      0.298933333333     0.329400000000     0.586150000000     0          
O        O      0.210666666667     0.451100000000     0.618050000000     0          
O        O      0.277500000000     0.369000000000     0.511850000000     0          
O        O      0.313200000000     0.320600000000     0.997050000000     0          
O        O      0.256533333333     0.414550000000     0.675850000000     0          
O        O      0.252600000000     0.472050000000     0.700750000000     0          
O        O      0.292733333333     0.366450000000     0.659600000000     0          
O        O      0.021066666667     0.458850000000     0.512850000000     0          
O        O      0.187033333333     0.450950000000     0.519650000000     0          
O        O      0.035200000000     0.315950000000     0.957500000000     0          
O        O      0.315333333333     0.478850000000     0.681600000000     0          
O        O      0.291633333333     0.045100000000     0.827650000000     0          
O        O      0.248600000000     0.314600000000     0.507900000000     0          
O        O      0.325933333333     0.466700000000     0.591100000000     0          
O        O      0.032966666667     0.285900000000     0.540900000000     0          
O        O      0.265000000000     0.017900000000     0.645050000000     0          
O        O      0.273400000000     0.309000000000     0.662000000000     0          
O        O      0.006500000000     0.322650000000     0.677250000000     0          
O        O      0.299766666667     0.425950000000     0.521950000000     0          
O        O      0.326200000000     0.269200000000     0.954350000000     0          
O        O      0.087433333333     0.474400000000     0.542250000000     0          
O        O      0.237600000000     0.012300000000     0.781400000000     0          
O        O      0.274700000000     0.029050000000     0.554400000000     0          
O        O      0.112333333333     0.030100000000     0.547350000000     0          
O        O      0.263600000000     0.402800000000     0.584250000000     0          
O        O      0.317833333333     0.421750000000     0.652450000000     0          
O        O      0.217466666667     0.000300000000     0.565400000000     0          
O        O      0.155166666667     0.483750000000     0.577150000000     0          
O        O      0.057200000000     0.250650000000     0.619750000000     0          
O        O      0.232466666667     0.414500000000     0.990300000000     0          
O        O      0.292633333333     0.484650000000     0.500450000000     0          
O        O      0.126166666667     0.232700000000     0.992250000000     0          
O        O      0.132266666667     0.420600000000     0.836150000000     0          
O        O      0.044000000000     0.298900000000     0.868050000000     0          
O        O      0.110833333333     0.381000000000     0.761850000000     0          
O        O      0.146533333333     0.429400000000     0.747050000000     0          
O        O      0.089866666667     0.335450000000     0.925850000000     0          
O        O      0.085933333333     0.277950000000     0.950750000000     0          
O        O      0.126066666667     0.383550000000     0.909600000000     0          
O        O      0.187733333333     0.291150000000     0.762850000000     0          
O        O      0.020366666667     0.299050000000     0.769650000000     0          
O        O      0.201866666667     0.434050000000     0.707500000000     0          
O        O      0.148666666667     0.271150000000     0.931600000000     0          
O        O      0.124966666667     0.204900000000     0.577650000000     0          
O        O      0.081933333333     0.435400000000     0.757900000000     0          
O        O      0.159266666667     0.283300000000     0.841100000000     0          
O        O      0.199633333333     0.464100000000     0.790900000000     0          
O        O      0.098333333333     0.232100000000     0.895050000000     0          
O        O      0.106733333333     0.441000000000     0.912000000000     0          
O        O      0.173166666667     0.427350000000     0.927250000000     0          
O        O      0.133100000000     0.324050000000     0.771950000000     0          
O        O      0.159533333333     0.480800000000     0.704350000000     0          
O        O      0.254100000000     0.275600000000     0.792250000000     0          
O        O      0.070933333333     0.237700000000     0.531400000000     0          
O        O      0.108033333333     0.220950000000     0.804400000000     0          
O        O      0.279000000000     0.219900000000     0.797350000000     0          
O        O      0.096933333333     0.347200000000     0.834250000000     0          
O        O      0.151166666667     0.328250000000     0.902450000000     0          
O        O      0.050800000000     0.249700000000     0.815400000000     0          
O        O      0.321833333333     0.266250000000     0.827150000000     0          
O        O      0.223866666667     0.499350000000     0.869750000000     0          
O        O      0.065800000000     0.335500000000     0.740300000000     0          
O        O      0.125966666667     0.265350000000     0.750450000000     0          
O        O      0.040500000000     0.482700000000     0.757750000000     0          
O        O      0.034400000000     0.170600000000     0.913850000000     0          
O        O      0.122666666667     0.048900000000     0.881950000000     0          
O        O      0.055833333333     0.131000000000     0.988150000000     0          
O        O      0.020133333333     0.179400000000     0.502950000000     0          
O        O      0.076800000000     0.085450000000     0.824150000000     0          
O        O      0.080733333333     0.027950000000     0.799250000000     0          
O        O      0.040600000000     0.133550000000     0.840400000000     0          
O        O      0.312266666667     0.041150000000     0.987150000000     0          
O        O      0.146300000000     0.049050000000     0.980350000000     0          
O        O      0.298133333333     0.184050000000     0.542500000000     0          
O        O      0.018000000000     0.021150000000     0.818400000000     0          
O        O      0.041700000000     0.454900000000     0.672350000000     0          
O        O      0.084733333333     0.185400000000     0.992100000000     0          
O        O      0.007400000000     0.033300000000     0.908900000000     0          
O        O      0.300366666667     0.214100000000     0.959100000000     0          
O        O      0.068333333333     0.482100000000     0.854950000000     0          
O        O      0.059933333333     0.191000000000     0.838000000000     0          
O        O      0.326833333333     0.177350000000     0.822750000000     0          
O        O      0.033566666667     0.074050000000     0.978050000000     0          
O        O      0.007133333333     0.230800000000     0.545650000000     0          
O        O      0.245900000000     0.025600000000     0.957750000000     0          
O        O      0.095733333333     0.487700000000     0.718600000000     0          
O        O      0.058633333333     0.470950000000     0.945600000000     0          
O        O      0.221000000000     0.469900000000     0.952650000000     0          
O        O      0.069733333333     0.097200000000     0.915750000000     0          
O        O      0.015500000000     0.078250000000     0.847550000000     0          
O        O      0.115866666667     0.499700000000     0.934600000000     0          
O        O      0.178166666667     0.016250000000     0.922850000000     0          
O        O      0.276133333333     0.249350000000     0.880250000000     0          
O        O      0.100866666667     0.085500000000     0.509700000000     0          
O        O      0.040700000000     0.015350000000     0.999550000000     0          
O        O      0.207166666667     0.767300000000     0.007750000000     0          
O        O      0.201066666667     0.579400000000     0.163850000000     0          
O        O      0.289333333333     0.701100000000     0.131950000000     0          
O        O      0.222500000000     0.619000000000     0.238150000000     0          
O        O      0.186800000000     0.570600000000     0.252950000000     0          
O        O      0.243466666667     0.664550000000     0.074150000000     0          
O        O      0.247400000000     0.722050000000     0.049250000000     0          
O        O      0.207266666667     0.616450000000     0.090400000000     0          
O        O      0.145600000000     0.708850000000     0.237150000000     0          
O        O      0.312966666667     0.700950000000     0.230350000000     0          
O        O      0.131466666667     0.565950000000     0.292500000000     0          
O        O      0.184666666667     0.728850000000     0.068400000000     0          
O        O      0.208366666667     0.795100000000     0.422350000000     0          
O        O      0.251400000000     0.564600000000     0.242100000000     0          
O        O      0.174066666667     0.716700000000     0.158900000000     0          
O        O      0.133700000000     0.535900000000     0.209100000000     0          
O        O      0.235000000000     0.767900000000     0.104950000000     0          
O        O      0.226600000000     0.559000000000     0.088000000000     0          
O        O      0.160166666667     0.572650000000     0.072750000000     0          
O        O      0.200233333333     0.675950000000     0.228050000000     0          
O        O      0.173800000000     0.519200000000     0.295650000000     0          
O        O      0.079233333333     0.724400000000     0.207750000000     0          
O        O      0.262400000000     0.762300000000     0.468600000000     0          
O        O      0.225300000000     0.779050000000     0.195600000000     0          
O        O      0.054333333333     0.780100000000     0.202650000000     0          
O        O      0.236400000000     0.652800000000     0.165750000000     0          
O        O      0.182166666667     0.671750000000     0.097550000000     0          
O        O      0.282533333333     0.750300000000     0.184600000000     0          
O        O      0.011500000000     0.733750000000     0.172850000000     0          
O        O      0.109466666667     0.500650000000     0.130250000000     0          
O        O      0.267533333333     0.664500000000     0.259700000000     0          
O        O      0.207366666667     0.734650000000     0.249550000000     0          
O        O      0.292833333333     0.517300000000     0.242250000000     0          
O        O      0.298933333333     0.829400000000     0.086150000000     0          
O        O      0.210666666667     0.951100000000     0.118050000000     0          
O        O      0.277500000000     0.869000000000     0.011850000000     0          
O        O      0.313200000000     0.820600000000     0.497050000000     0          
O        O      0.256533333333     0.914550000000     0.175850000000     0          
O        O      0.252600000000     0.972050000000     0.200750000000     0          
O        O      0.292733333333     0.866450000000     0.159600000000     0          
O        O      0.021066666667     0.958850000000     0.012850000000     0          
O        O      0.187033333333     0.950950000000     0.019650000000     0          
O        O      0.035200000000     0.815950000000     0.457500000000     0          
O        O      0.315333333333     0.978850000000     0.181600000000     0          
O        O      0.291633333333     0.545100000000     0.327650000000     0          
O        O      0.248600000000     0.814600000000     0.007900000000     0          
O        O      0.325933333333     0.966700000000     0.091100000000     0          
O        O      0.032966666667     0.785900000000     0.040900000000     0          
O        O      0.265000000000     0.517900000000     0.145050000000     0          
O        O      0.273400000000     0.809000000000     0.162000000000     0          
O        O      0.006500000000     0.822650000000     0.177250000000     0          
O        O      0.299766666667     0.925950000000     0.021950000000     0          
O        O      0.326200000000     0.769200000000     0.454350000000     0          
O        O      0.087433333333     0.974400000000     0.042250000000     0          
O        O      0.237600000000     0.512300000000     0.281400000000     0          
O        O      0.274700000000     0.529050000000     0.054400000000     0          
O        O      0.112333333333     0.530100000000     0.047350000000     0          
O        O      0.263600000000     0.902800000000     0.084250000000     0          
O        O      0.317833333333     0.921750000000     0.152450000000     0          
O        O      0.217466666667     0.500300000000     0.065400000000     0          
O        O      0.155166666667     0.983750000000     0.077150000000     0          
O        O      0.057200000000     0.750650000000     0.119750000000     0          
O        O      0.232466666667     0.914500000000     0.490300000000     0          
O        O      0.292633333333     0.984650000000     0.000450000000     0          
O        O      0.126166666667     0.732700000000     0.492250000000     0          
O        O      0.132266666667     0.920600000000     0.336150000000     0          
O        O      0.044000000000     0.798900000000     0.368050000000     0          
O        O      0.110833333333     0.881000000000     0.261850000000     0          
O        O      0.146533333333     0.929400000000     0.247050000000     0          
O        O      0.089866666667     0.835450000000     0.425850000000     0          
O        O      0.085933333333     0.777950000000     0.450750000000     0          
O        O      0.126066666667     0.883550000000     0.409600000000     0          
O        O      0.187733333333     0.791150000000     0.262850000000     0          
O        O      0.020366666667     0.799050000000     0.269650000000     0          
O        O      0.201866666667     0.934050000000     0.207500000000     0          
O        O      0.148666666667     0.771150000000     0.431600000000     0          
O        O      0.124966666667     0.704900000000     0.077650000000     0          
O        O      0.081933333333     0.935400000000     0.257900000000     0          
O        O      0.159266666667     0.783300000000     0.341100000000     0          
O        O      0.199633333333     0.964100000000     0.290900000000     0          
O        O      0.098333333333     0.732100000000     0.395050000000     0          
O        O      0.106733333333     0.941000000000     0.412000000000     0          
O        O      0.173166666667     0.927350000000     0.427250000000     0          
O        O      0.133100000000     0.824050000000     0.271950000000     0          
O        O      0.159533333333     0.980800000000     0.204350000000     0          
O        O      0.254100000000     0.775600000000     0.292250000000     0          
O        O      0.070933333333     0.737700000000     0.031400000000     0          
O        O      0.108033333333     0.720950000000     0.304400000000     0          
O        O      0.279000000000     0.719900000000     0.297350000000     0          
O        O      0.096933333333     0.847200000000     0.334250000000     0          
O        O      0.151166666667     0.828250000000     0.402450000000     0          
O        O      0.050800000000     0.749700000000     0.315400000000     0          
O        O      0.321833333333     0.766250000000     0.327150000000     0          
O        O      0.223866666667     0.999350000000     0.369750000000     0          
O        O      0.065800000000     0.835500000000     0.240300000000     0          
O        O      0.125966666667     0.765350000000     0.250450000000     0          
O        O      0.040500000000     0.982700000000     0.257750000000     0          
O        O      0.034400000000     0.670600000000     0.413850000000     0          
O        O      0.122666666667     0.548900000000     0.381950000000     0          
O        O      0.055833333333     0.631000000000     0.488150000000     0          
O        O      0.020133333333     0.679400000000     0.002950000000     0          
O        O      0.076800000000     0.585450000000     0.324150000000     0          
O        O      0.080733333333     0.527950000000     0.299250000000     0          
O        O      0.040600000000     0.633550000000     0.340400000000     0          
O        O      0.312266666667     0.541150000000     0.487150000000     0          
O        O      0.146300000000     0.549050000000     0.480350000000     0          
O        O      0.298133333333     0.684050000000     0.042500000000     0          
O        O      0.018000000000     0.521150000000     0.318400000000     0          
O        O      0.041700000000     0.954900000000     0.172350000000     0          
O        O      0.084733333333     0.685400000000     0.492100000000     0          
O        O      0.007400000000     0.533300000000     0.408900000000     0          
O        O      0.300366666667     0.714100000000     0.459100000000     0          
O        O      0.068333333333     0.982100000000     0.354950000000     0          
O        O      0.059933333333     0.691000000000     0.338000000000     0          
O        O      0.326833333333     0.677350000000     0.322750000000     0          
O        O      0.033566666667     0.574050000000     0.478050000000     0          
O        O      0.007133333333     0.730800000000     0.045650000000     0          
O        O      0.245900000000     0.525600000000     0.457750000000     0          
O        O      0.095733333333     0.987700000000     0.218600000000     0          
O        O      0.058633333333     0.970950000000     0.445600000000     0          
O        O      0.221000000000     0.969900000000     0.452650000000     0          
O        O      0.069733333333     0.597200000000     0.415750000000     0          
O        O      0.015500000000     0.578250000000     0.347550000000     0          
O        O      0.115866666667     0.999700000000     0.434600000000     0          
O        O      0.178166666667     0.516250000000     0.422850000000     0          
O        O      0.276133333333     0.749350000000     0.380250000000     0          
O        O      0.100866666667     0.585500000000     0.009700000000     0          
O        O      0.040700000000     0.515350000000     0.499550000000     0          
O        O      0.207166666667     0.767300000000     0.507750000000     0          
O        O      0.201066666667     0.579400000000     0.663850000000     0          
O        O      0.289333333333     0.701100000000     0.631950000000     0          
O        O      0.222500000000     0.619000000000     0.738150000000     0          
O        O      0.186800000000     0.570600000000     0.752950000000     0          
O        O      0.243466666667     0.664550000000     0.574150000000     0          
O        O      0.247400000000     0.722050000000     0.549250000000     0          
O        O      0.207266666667     0.616450000000     0.590400000000     0          
O        O      0.145600000000     0.708850000000     0.737150000000     0          
O        O      0.312966666667     0.700950000000     0.730350000000     0          
O        O      0.131466666667     0.565950000000     0.792500000000     0          
O        O      0.184666666667     0.728850000000     0.568400000000     0          
O        O      0.208366666667     0.795100000000     0.922350000000     0          
O        O      0.251400000000     0.564600000000     0.742100000000     0          
O        O      0.174066666667     0.716700000000     0.658900000000     0          
O        O      0.133700000000     0.535900000000     0.709100000000     0          
O        O      0.235000000000     0.767900000000     0.604950000000     0          
O        O      0.226600000000     0.559000000000     0.588000000000     0          
O        O      0.160166666667     0.572650000000     0.572750000000     0          
O        O      0.200233333333     0.675950000000     0.728050000000     0          
O        O      0.173800000000     0.519200000000     0.795650000000     0          
O        O      0.079233333333     0.724400000000     0.707750000000     0          
O        O      0.262400000000     0.762300000000     0.968600000000     0          
O        O      0.225300000000     0.779050000000     0.695600000000     0          
O        O      0.054333333333     0.780100000000     0.702650000000     0          
O        O      0.236400000000     0.652800000000     0.665750000000     0          
O        O      0.182166666667     0.671750000000     0.597550000000     0          
O        O      0.282533333333     0.750300000000     0.684600000000     0          
O        O      0.011500000000     0.733750000000     0.672850000000     0          
O        O      0.109466666667     0.500650000000     0.630250000000     0          
O        O      0.267533333333     0.664500000000     0.759700000000     0          
O        O      0.207366666667     0.734650000000     0.749550000000     0          
O        O      0.292833333333     0.517300000000     0.742250000000     0          
O        O      0.298933333333     0.829400000000     0.586150000000     0          
O        O      0.210666666667     0.951100000000     0.618050000000     0          
O        O      0.277500000000     0.869000000000     0.511850000000     0          
O        O      0.313200000000     0.820600000000     0.997050000000     0          
O        O      0.256533333333     0.914550000000     0.675850000000     0          
O        O      0.252600000000     0.972050000000     0.700750000000     0          
O        O      0.292733333333     0.866450000000     0.659600000000     0          
O        O      0.021066666667     0.958850000000     0.512850000000     0          
O        O      0.187033333333     0.950950000000     0.519650000000     0          
O        O      0.035200000000     0.815950000000     0.957500000000     0          
O        O      0.315333333333     0.978850000000     0.681600000000     0          
O        O      0.291633333333     0.545100000000     0.827650000000     0          
O        O      0.248600000000     0.814600000000     0.507900000000     0          
O        O      0.325933333333     0.966700000000     0.591100000000     0          
O        O      0.032966666667     0.785900000000     0.540900000000     0          
O        O      0.265000000000     0.517900000000     0.645050000000     0          
O        O      0.273400000000     0.809000000000     0.662000000000     0          
O        O      0.006500000000     0.822650000000     0.677250000000     0          
O        O      0.299766666667     0.925950000000     0.521950000000     0          
O        O      0.326200000000     0.769200000000     0.954350000000     0          
O        O      0.087433333333     0.974400000000     0.542250000000     0          
O        O      0.237600000000     0.512300000000     0.781400000000     0          
O        O      0.274700000000     0.529050000000     0.554400000000     0          
O        O      0.112333333333     0.530100000000     0.547350000000     0          
O        O      0.263600000000     0.902800000000     0.584250000000     0          
O        O      0.317833333333     0.921750000000     0.652450000000     0          
O        O      0.217466666667     0.500300000000     0.565400000000     0          
O        O      0.155166666667     0.983750000000     0.577150000000     0          
O        O      0.057200000000     0.750650000000     0.619750000000     0          
O        O      0.232466666667     0.914500000000     0.990300000000     0          
O        O      0.292633333333     0.984650000000     0.500450000000     0          
O        O      0.126166666667     0.732700000000     0.992250000000     0          
O        O      0.132266666667     0.920600000000     0.836150000000     0          
O        O      0.044000000000     0.798900000000     0.868050000000     0          
O        O      0.110833333333     0.881000000000     0.761850000000     0          
O        O      0.146533333333     0.929400000000     0.747050000000     0          
O        O      0.089866666667     0.835450000000     0.925850000000     0          
O        O      0.085933333333     0.777950000000     0.950750000000     0          
O        O      0.126066666667     0.883550000000     0.909600000000     0          
O        O      0.187733333333     0.791150000000     0.762850000000     0          
O        O      0.020366666667     0.799050000000     0.769650000000     0          
O        O      0.201866666667     0.934050000000     0.707500000000     0          
O        O      0.148666666667     0.771150000000     0.931600000000     0          
O        O      0.124966666667     0.704900000000     0.577650000000     0          
O        O      0.081933333333     0.935400000000     0.757900000000     0          
O        O      0.159266666667     0.783300000000     0.841100000000     0          
O        O      0.199633333333     0.964100000000     0.790900000000     0          
O        O      0.098333333333     0.732100000000     0.895050000000     0          
O        O      0.106733333333     0.941000000000     0.912000000000     0          
O        O      0.173166666667     0.927350000000     0.927250000000     0          
O        O      0.133100000000     0.824050000000     0.771950000000     0          
O        O      0.159533333333     0.980800000000     0.704350000000     0          
O        O      0.254100000000     0.775600000000     0.792250000000     0          
O        O      0.070933333333     0.737700000000     0.531400000000     0          
O        O      0.108033333333     0.720950000000     0.804400000000     0          
O        O      0.279000000000     0.719900000000     0.797350000000     0          
O        O      0.096933333333     0.847200000000     0.834250000000     0          
O        O      0.151166666667     0.828250000000     0.902450000000     0          
O        O      0.050800000000     0.749700000000     0.815400000000     0          
O        O      0.321833333333     0.766250000000     0.827150000000     0          
O        O      0.223866666667     0.999350000000     0.869750000000     0          
O        O      0.065800000000     0.835500000000     0.740300000000     0          
O        O      0.125966666667     0.765350000000     0.750450000000     0          
O        O      0.040500000000     0.982700000000     0.757750000000     0          
O        O      0.034400000000     0.670600000000     0.913850000000     0          
O        O      0.122666666667     0.548900000000     0.881950000000     0          
O        O      0.055833333333     0.631000000000     0.988150000000     0          
O        O      0.020133333333     0.679400000000     0.502950000000     0          
O        O      0.076800000000     0.585450000000     0.824150000000     0          
O        O      0.080733333333     0.527950000000     0.799250000000     0          
O        O      0.040600000000     0.633550000000     0.840400000000     0          
O        O      0.312266666667     0.541150000000     0.987150000000     0          
O        O      0.146300000000     0.549050000000     0.980350000000     0          
O        O      0.298133333333     0.684050000000     0.542500000000     0          
O        O      0.018000000000     0.521150000000     0.818400000000     0          
O        O      0.041700000000     0.954900000000     0.672350000000     0          
O        O      0.084733333333     0.685400000000     0.992100000000     0          
O        O      0.007400000000     0.533300000000     0.908900000000     0          
O        O      0.300366666667     0.714100000000     0.959100000000     0          
O        O      0.068333333333     0.982100000000     0.854950000000     0          
O        O      0.059933333333     0.691000000000     0.838000000000     0          
O        O      0.326833333333     0.677350000000     0.822750000000     0          
O        O      0.033566666667     0.574050000000     0.978050000000     0          
O        O      0.007133333333     0.730800000000     0.545650000000     0          
O        O      0.245900000000     0.525600000000     0.957750000000     0          
O        O      0.095733333333     0.987700000000     0.718600000000     0          
O        O      0.058633333333     0.970950000000     0.945600000000     0          
O        O      0.221000000000     0.969900000000     0.952650000000     0          
O        O      0.069733333333     0.597200000000     0.915750000000     0          
O        O      0.015500000000     0.578250000000     0.847550000000     0          
O        O      0.115866666667     0.999700000000     0.934600000000     0          
O        O      0.178166666667     0.516250000000     0.922850000000     0          
O        O      0.276133333333     0.749350000000     0.880250000000     0          
O        O      0.100866666667     0.585500000000     0.509700000000     0          
O        O      0.040700000000     0.515350000000     0.999550000000     0          
O        O      0.540500000000     0.267300000000     0.007750000000     0          
O        O      0.534400000000     0.079400000000     0.163850000000     0          
O        O      0.622666666667     0.201100000000     0.131950000000     0          
O        O      0.555833333333     0.119000000000     0.238150000000     0          
O        O      0.520133333333     0.070600000000     0.252950000000     0          
O        O      0.576800000000     0.164550000000     0.074150000000     0          
O        O      0.580733333333     0.222050000000     0.049250000000     0          
O        O      0.540600000000     0.116450000000     0.090400000000     0          
O        O      0.478933333333     0.208850000000     0.237150000000     0          
O        O      0.646300000000     0.200950000000     0.230350000000     0          
O        O      0.464800000000     0.065950000000     0.292500000000     0          
O        O      0.518000000000     0.228850000000     0.068400000000     0          
O        O      0.541700000000     0.295100000000     0.422350000000     0          
O        O      0.584733333333     0.064600000000     0.242100000000     0          
O        O      0.507400000000     0.216700000000     0.158900000000     0          
O        O      0.467033333333     0.035900000000     0.209100000000     0          
O        O      0.568333333333     0.267900000000     0.104950000000     0          
O        O      0.559933333333     0.059000000000     0.088000000000     0          
O        O      0.493500000000     0.072650000000     0.072750000000     0          
O        O      0.533566666667     0.175950000000     0.228050000000     0          
O        O      0.507133333333     0.019200000000     0.295650000000     0          
O        O      0.412566666667     0.224400000000     0.207750000000     0          
O        O      0.595733333333     0.262300000000     0.468600000000     0          
O        O      0.558633333333     0.279050000000     0.195600000000     0          
O        O      0.387666666667     0.280100000000     0.202650000000     0          
O        O      0.569733333333     0.152800000000     0.165750000000     0          
O        O      0.515500000000     0.171750000000     0.097550000000     0          
O        O      0.615866666667     0.250300000000     0.184600000000     0          
O        O      0.344833333333     0.233750000000     0.172850000000     0          
O        O      0.442800000000     0.000650000000     0.130250000000     0          
O        O      0.600866666667     0.164500000000     0.259700000000     0          
O        O      0.540700000000     0.234650000000     0.249550000000     0          
O        O      0.626166666667     0.017300000000     0.242250000000     0          
O        O      0.632266666667     0.329400000000     0.086150000000     0          
O        O      0.544000000000     0.451100000000     0.118050000000     0          
O        O      0.610833333333     0.369000000000     0.011850000000     0          
O        O      0.646533333333     0.320600000000     0.497050000000     0          
O        O      0.589866666667     0.414550000000     0.175850000000     0          
O        O      0.585933333333     0.472050000000     0.200750000000     0          
O        O      0.626066666667     0.366450000000     0.159600000000     0          
O        O      0.354400000000     0.458850000000     0.012850000000     0          
O        O      0.520366666667     0.450950000000     0.019650000000     0          
O        O      0.368533333333     0.315950000000     0.457500000000     0          
O        O      0.648666666667     0.478850000000     0.181600000000     0          
O        O      0.624966666667     0.045100000000     0.327650000000     0          
O        O      0.581933333333     0.314600000000     0.007900000000     0          
O        O      0.659266666667     0.466700000000     0.091100000000     0          
O        O      0.366300000000     0.285900000000     0.040900000000     0          
O        O      0.598333333333     0.017900000000     0.145050000000     0          
O        O      0.606733333333     0.309000000000     0.162000000000     0          
O        O      0.339833333333     0.322650000000     0.177250000000     0          
O        O      0.633100000000     0.425950000000     0.021950000000     0          
O        O      0.659533333333     0.269200000000     0.454350000000     0          
O        O      0.420766666667     0.474400000000     0.042250000000     0          
O        O      0.570933333333     0.012300000000     0.281400000000     0          
O        O      0.608033333333     0.029050000000     0.054400000000     0          
O        O      0.445666666667     0.030100000000     0.047350000000     0          
O        O      0.596933333333     0.402800000000     0.084250000000     0          
O        O      0.651166666667     0.421750000000     0.152450000000     0          
O        O      0.550800000000     0.000300000000     0.065400000000     0          
O        O      0.488500000000     0.483750000000     0.077150000000     0          
O        O      0.390533333333     0.250650000000     0.119750000000     0          
O        O      0.565800000000     0.414500000000     0.490300000000     0          
O        O      0.625966666667     0.484650000000     0.000450000000     0          
O        O      0.459500000000     0.232700000000     0.492250000000     0          
O        O      0.465600000000     0.420600000000     0.336150000000     0          
O        O      0.377333333333     0.298900000000     0.368050000000     0          
O        O      0.444166666667     0.381000000000     0.261850000000     0          
O        O      0.479866666667     0.429400000000     0.247050000000     0          
O        O      0.423200000000     0.335450000000     0.425850000000     0          
O        O      0.419266666667     0.277950000000     0.450750000000     0          
O        O      0.459400000000     0.383550000000     0.409600000000     0          
O        O      0.521066666667     0.291150000000     0.262850000000     0          
O        O      0.353700000000     0.299050000000     0.269650000000     0          
O        O      0.535200000000     0.434050000000     0.207500000000     0          
O        O      0.482000000000     0.271150000000     0.431600000000     0          
O        O      0.458300000000     0.204900000000     0.077650000000     0          
O        O      0.415266666667     0.435400000000     0.257900000000     0          
O        O      0.492600000000     0.283300000000     0.341100000000     0          
O        O      0.532966666667     0.464100000000     0.290900000000     0          
O        O      0.431666666667     0.232100000000     0.395050000000     0          
O        O      0.440066666667     0.441000000000     0.412000000000     0          
O        O      0.506500000000     0.427350000000     0.427250000000     0          
O        O      0.466433333333     0.324050000000     0.271950000000     0          
O        O      0.492866666667     0.480800000000     0.204350000000     0          
O        O      0.587433333333     0.275600000000     0.292250000000     0          
O        O      0.404266666667     0.237700000000     0.031400000000     0          
O        O      0.441366666667     0.220950000000     0.304400000000     0          
O        O      0.612333333333     0.219900000000     0.297350000000     0          
O        O      0.430266666667     0.347200000000     0.334250000000     0          
O        O      0.484500000000     0.328250000000     0.402450000000     0          
O        O      0.384133333333     0.249700000000     0.315400000000     0          
O        O      0.655166666667     0.266250000000     0.327150000000     0          
O        O      0.557200000000     0.499350000000     0.369750000000     0          
O        O      0.399133333333     0.335500000000     0.240300000000     0          
O        O      0.459300000000     0.265350000000     0.250450000000     0          
O        O      0.373833333333     0.482700000000     0.257750000000     0          
O        O      0.367733333333     0.170600000000     0.413850000000     0          
O        O      0.456000000000     0.048900000000     0.381950000000     0          
O        O      0.389166666667     0.131000000000     0.488150000000     0          
O        O      0.353466666667     0.179400000000     0.002950000000     0          
O        O      0.410133333333     0.085450000000     0.324150000000     0          
O        O      0.414066666667     0.027950000000     0.299250000000     0          
O        O      0.373933333333     0.133550000000     0.340400000000     0          
O        O      0.645600000000     0.041150000000     0.487150000000     0          
O        O      0.479633333333     0.049050000000     0.480350000000     0          
O        O      0.631466666667     0.184050000000     0.042500000000     0          
O        O      0.351333333333     0.021150000000     0.318400000000     0          
O        O      0.375033333333     0.454900000000     0.172350000000     0          
O        O      0.418066666667     0.185400000000     0.492100000000     0          
O        O      0.340733333333     0.033300000000     0.408900000000     0          
O        O      0.633700000000     0.214100000000     0.459100000000     0          
O        O      0.401666666667     0.482100000000     0.354950000000     0          
O        O      0.393266666667     0.191000000000     0.338000000000     0          
O        O      0.660166666667     0.177350000000     0.322750000000     0          
O        O      0.366900000000     0.074050000000     0.478050000000     0          
O        O      0.340466666667     0.230800000000     0.045650000000     0          
O        O      0.579233333333     0.025600000000     0.457750000000     0          
O        O      0.429066666667     0.487700000000     0.218600000000     0          
O        O      0.391966666667     0.470950000000     0.445600000000     0          
O        O      0.554333333333     0.469900000000     0.452650000000     0          
O        O      0.403066666667     0.097200000000     0.415750000000     0          
O        O      0.348833333333     0.078250000000     0.347550000000     0          
O        O      0.449200000000     0.499700000000     0.434600000000     0          
O        O      0.511500000000     0.016250000000     0.422850000000     0          
O        O      0.609466666667     0.249350000000     0.380250000000     0          
O        O      0.434200000000     0.085500000000     0.009700000000     0          
O        O      0.374033333333     0.015350000000     0.499550000000     0          
O        O      0.540500000000     0.267300000000     0.507750000000     0          
O        O      0.534400000000     0.079400000000     0.663850000000     0          
O        O      0.622666666667     0.201100000000     0.631950000000     0          
O        O      0.555833333333     0.119000000000     0.738150000000     0          
O        O      0.520133333333     0.070600000000     0.752950000000     0          
O        O      0.576800000000     0.164550000000     0.574150000000     0          
O        O      0.580733333333     0.222050000000     0.549250000000     0          
O        O      0.540600000000     0.116450000000     0.590400000000     0          
O        O      0.478933333333     0.208850000000     0.737150000000     0          
O        O      0.646300000000     0.200950000000     0.730350000000     0          
O        O      0.464800000000     0.065950000000     0.792500000000     0          
O        O      0.518000000000     0.228850000000     0.568400000000     0          
O        O      0.541700000000     0.295100000000     0.922350000000     0          
O        O      0.584733333333     0.064600000000     0.742100000000     0          
O        O      0.507400000000     0.216700000000     0.658900000000     0          
O        O      0.467033333333     0.035900000000     0.709100000000     0          
O        O      0.568333333333     0.267900000000     0.604950000000     0          
O        O      0.559933333333     0.059000000000     0.588000000000     0          
O        O      0.493500000000     0.072650000000     0.572750000000     0          
O        O      0.533566666667     0.175950000000     0.728050000000     0          
O        O      0.507133333333     0.019200000000     0.795650000000     0          
O        O      0.412566666667     0.224400000000     0.707750000000     0          
O        O      0.595733333333     0.262300000000     0.968600000000     0          
O        O      0.558633333333     0.279050000000     0.695600000000     0          
O        O      0.387666666667     0.280100000000     0.702650000000     0          
O        O      0.569733333333     0.152800000000     0.665750000000     0          
O        O      0.515500000000     0.171750000000     0.597550000000     0          
O        O      0.615866666667     0.250300000000     0.684600000000     0          
O        O      0.344833333333     0.233750000000     0.672850000000     0          
O        O      0.442800000000     0.000650000000     0.630250000000     0          
O        O      0.600866666667     0.164500000000     0.759700000000     0          
O        O      0.540700000000     0.234650000000     0.749550000000     0          
O        O      0.626166666667     0.017300000000     0.742250000000     0          
O        O      0.632266666667     0.329400000000     0.586150000000     0          
O        O      0.544000000000     0.451100000000     0.618050000000     0          
O        O      0.610833333333     0.369000000000     0.511850000000     0          
O        O      0.646533333333     0.320600000000     0.997050000000     0          
O        O      0.589866666667     0.414550000000     0.675850000000     0          
O        O      0.585933333333     0.472050000000     0.700750000000     0          
O        O      0.626066666667     0.366450000000     0.659600000000     0          
O        O      0.354400000000     0.458850000000     0.512850000000     0          
O        O      0.520366666667     0.450950000000     0.519650000000     0          
O        O      0.368533333333     0.315950000000     0.957500000000     0          
O        O      0.648666666667     0.478850000000     0.681600000000     0          
O        O      0.624966666667     0.045100000000     0.827650000000     0          
O        O      0.581933333333     0.314600000000     0.507900000000     0          
O        O      0.659266666667     0.466700000000     0.591100000000     0          
O        O      0.366300000000     0.285900000000     0.540900000000     0          
O        O      0.598333333333     0.017900000000     0.645050000000     0          
O        O      0.606733333333     0.309000000000     0.662000000000     0          
O        O      0.339833333333     0.322650000000     0.677250000000     0          
O        O      0.633100000000     0.425950000000     0.521950000000     0          
O        O      0.659533333333     0.269200000000     0.954350000000     0          
O        O      0.420766666667     0.474400000000     0.542250000000     0          
O        O      0.570933333333     0.012300000000     0.781400000000     0          
O        O      0.608033333333     0.029050000000     0.554400000000     0          
O        O      0.445666666667     0.030100000000     0.547350000000     0          
O        O      0.596933333333     0.402800000000     0.584250000000     0          
O        O      0.651166666667     0.421750000000     0.652450000000     0          
O        O      0.550800000000     0.000300000000     0.565400000000     0          
O        O      0.488500000000     0.483750000000     0.577150000000     0          
O        O      0.390533333333     0.250650000000     0.619750000000     0          
O        O      0.565800000000     0.414500000000     0.990300000000     0          
O        O      0.625966666667     0.484650000000     0.500450000000     0          
O        O      0.459500000000     0.232700000000     0.992250000000     0          
O        O      0.465600000000     0.420600000000     0.836150000000     0          
O        O      0.377333333333     0.298900000000     0.868050000000     0          
O        O      0.444166666667     0.381000000000     0.761850000000     0          
O        O      0.479866666667     0.429400000000     0.747050000000     0          
O        O      0.423200000000     0.335450000000     0.925850000000     0          
O        O      0.419266666667     0.277950000000     0.950750000000     0          
O        O      0.459400000000     0.383550000000     0.909600000000     0          
O        O      0.521066666667     0.291150000000     0.762850000000     0          
O        O      0.353700000000     0.299050000000     0.769650000000     0          
O        O      0.535200000000     0.434050000000     0.707500000000     0          
O        O      0.482000000000     0.271150000000     0.931600000000     0          
O        O      0.458300000000     0.204900000000     0.577650000000     0          
O        O      0.415266666667     0.435400000000     0.757900000000     0          
O        O      0.492600000000     0.283300000000     0.841100000000     0          
O        O      0.532966666667     0.464100000000     0.790900000000     0          
O        O      0.431666666667     0.232100000000     0.895050000000     0          
O        O      0.440066666667     0.441000000000     0.912000000000     0          
O        O      0.506500000000     0.427350000000     0.927250000000     0          
O        O      0.466433333333     0.324050000000     0.771950000000     0          
O        O      0.492866666667     0.480800000000     0.704350000000     0          
O        O      0.587433333333     0.275600000000     0.792250000000     0          
O        O      0.404266666667     0.237700000000     0.531400000000     0          
O        O      0.441366666667     0.220950000000     0.804400000000     0          
O        O      0.612333333333     0.219900000000     0.797350000000     0          
O        O      0.430266666667     0.347200000000     0.834250000000     0          
O        O      0.484500000000     0.328250000000     0.902450000000     0          
O        O      0.384133333333     0.249700000000     0.815400000000     0          
O        O      0.655166666667     0.266250000000     0.827150000000     0          
O        O      0.557200000000     0.499350000000     0.869750000000     0          
O        O      0.399133333333     0.335500000000     0.740300000000     0          
O        O      0.459300000000     0.265350000000     0.750450000000     0          
O        O      0.373833333333     0.482700000000     0.757750000000     0          
O        O      0.367733333333     0.170600000000     0.913850000000     0          
O        O      0.456000000000     0.048900000000     0.881950000000     0          
O        O      0.389166666667     0.131000000000     0.988150000000     0          
O        O      0.353466666667     0.179400000000     0.502950000000     0          
O        O      0.410133333333     0.085450000000     0.824150000000     0          
O        O      0.414066666667     0.027950000000     0.799250000000     0          
O        O      0.373933333333     0.133550000000     0.840400000000     0          
O        O      0.645600000000     0.041150000000     0.987150000000     0          
O        O      0.479633333333     0.049050000000     0.980350000000     0          
O        O      0.631466666667     0.184050000000     0.542500000000     0          
O        O      0.351333333333     0.021150000000     0.818400000000     0          
O        O      0.375033333333     0.454900000000     0.672350000000     0          
O        O      0.418066666667     0.185400000000     0.992100000000     0          
O        O      0.340733333333     0.033300000000     0.908900000000     0          
O        O      0.633700000000     0.214100000000     0.959100000000     0          
O        O      0.401666666667     0.482100000000     0.854950000000     0          
O        O      0.393266666667     0.191000000000     0.838000000000     0          
O        O      0.660166666667     0.177350000000     0.822750000000     0          
O        O      0.366900000000     0.074050000000     0.978050000000     0          
O        O      0.340466666667     0.230800000000     0.545650000000     0          
O        O      0.579233333333     0.025600000000     0.957750000000     0          
O        O      0.429066666667     0.487700000000     0.718600000000     0          
O        O      0.391966666667     0.470950000000     0.945600000000     0          
O        O      0.554333333333     0.469900000000     0.952650000000     0          
O        O      0.403066666667     0.097200000000     0.915750000000     0          
O        O      0.348833333333     0.078250000000     0.847550000000     0          
O        O      0.449200000000     0.499700000000     0.934600000000     0          
O        O      0.511500000000     0.016250000000     0.922850000000     0          
O        O      0.609466666667     0.249350000000     0.880250000000     0          
O        O      0.434200000000     0.085500000000     0.509700000000     0          
O        O      0.374033333333     0.015350000000     0.999550000000     0          
O        O      0.540500000000     0.767300000000     0.007750000000     0          
O        O      0.534400000000     0.579400000000     0.163850000000     0          
O        O      0.622666666667     0.701100000000     0.131950000000     0          
O        O      0.555833333333     0.619000000000     0.238150000000     0          
O        O      0.520133333333     0.570600000000     0.252950000000     0          
O        O      0.576800000000     0.664550000000     0.074150000000     0          
O        O      0.580733333333     0.722050000000     0.049250000000     0          
O        O      0.540600000000     0.616450000000     0.090400000000     0          
O        O      0.478933333333     0.708850000000     0.237150000000     0          
O        O      0.646300000000     0.700950000000     0.230350000000     0          
O        O      0.464800000000     0.565950000000     0.292500000000     0          
O        O      0.518000000000     0.728850000000     0.068400000000     0          
O        O      0.541700000000     0.795100000000     0.422350000000     0          
O        O      0.584733333333     0.564600000000     0.242100000000     0          
O        O      0.507400000000     0.716700000000     0.158900000000     0          
O        O      0.467033333333     0.535900000000     0.209100000000     0          
O        O      0.568333333333     0.767900000000     0.104950000000     0          
O        O      0.559933333333     0.559000000000     0.088000000000     0          
O        O      0.493500000000     0.572650000000     0.072750000000     0          
O        O      0.533566666667     0.675950000000     0.228050000000     0          
O        O      0.507133333333     0.519200000000     0.295650000000     0          
O        O      0.412566666667     0.724400000000     0.207750000000     0          
O        O      0.595733333333     0.762300000000     0.468600000000     0          
O        O      0.558633333333     0.779050000000     0.195600000000     0          
O        O      0.387666666667     0.780100000000     0.202650000000     0          
O        O      0.569733333333     0.652800000000     0.165750000000     0          
O        O      0.515500000000     0.671750000000     0.097550000000     0          
O        O      0.615866666667     0.750300000000     0.184600000000     0          
O        O      0.344833333333     0.733750000000     0.172850000000     0          
O        O      0.442800000000     0.500650000000     0.130250000000     0          
O        O      0.600866666667     0.664500000000     0.259700000000     0          
O        O      0.540700000000     0.734650000000     0.249550000000     0          
O        O      0.626166666667     0.517300000000     0.242250000000     0          
O        O      0.632266666667     0.829400000000     0.086150000000     0          
O        O      0.544000000000     0.951100000000     0.118050000000     0          
O        O      0.610833333333     0.869000000000     0.011850000000     0          
O        O      0.646533333333     0.820600000000     0.497050000000     0          
O        O      0.589866666667     0.914550000000     0.175850000000     0          
O        O      0.585933333333     0.972050000000     0.200750000000     0          
O        O      0.626066666667     0.866450000000     0.159600000000     0          
O        O      0.354400000000     0.958850000000     0.012850000000     0          
O        O      0.520366666667     0.950950000000     0.019650000000     0          
O        O      0.368533333333     0.815950000000     0.457500000000     0          
O        O      0.648666666667     0.978850000000     0.181600000000     0          
O        O      0.624966666667     0.545100000000     0.327650000000     0          
O        O      0.581933333333     0.814600000000     0.007900000000     0          
O        O      0.659266666667     0.966700000000     0.091100000000     0          
O        O      0.366300000000     0.785900000000     0.040900000000     0          
O        O      0.598333333333     0.517900000000     0.145050000000     0          
O        O      0.606733333333     0.809000000000     0.162000000000     0          
O        O      0.339833333333     0.822650000000     0.177250000000     0          
O        O      0.633100000000     0.925950000000     0.021950000000     0          
O        O      0.659533333333     0.769200000000     0.454350000000     0          
O        O      0.420766666667     0.974400000000     0.042250000000     0          
O        O      0.570933333333     0.512300000000     0.281400000000     0          
O        O      0.608033333333     0.529050000000     0.054400000000     0          
O        O      0.445666666667     0.530100000000     0.047350000000     0          
O        O      0.596933333333     0.902800000000     0.084250000000     0          
O        O      0.651166666667     0.921750000000     0.152450000000     0          
O        O      0.550800000000     0.500300000000     0.065400000000     0          
O        O      0.488500000000     0.983750000000     0.077150000000     0          
O        O      0.390533333333     0.750650000000     0.119750000000     0          
O        O      0.565800000000     0.914500000000     0.490300000000     0          
O        O      0.625966666667     0.984650000000     0.000450000000     0          
O        O      0.459500000000     0.732700000000     0.492250000000     0          
O        O      0.465600000000     0.920600000000     0.336150000000     0          
O        O      0.377333333333     0.798900000000     0.368050000000     0          
O        O      0.444166666667     0.881000000000     0.261850000000     0          
O        O      0.479866666667     0.929400000000     0.247050000000     0          
O        O      0.423200000000     0.835450000000     0.425850000000     0          
O        O      0.419266666667     0.777950000000     0.450750000000     0          
O        O      0.459400000000     0.883550000000     0.409600000000     0          
O        O      0.521066666667     0.791150000000     0.262850000000     0          
O        O      0.353700000000     0.799050000000     0.269650000000     0          
O        O      0.535200000000     0.934050000000     0.207500000000     0          
O        O      0.482000000000     0.771150000000     0.431600000000     0          
O        O      0.458300000000     0.704900000000     0.077650000000     0          
O        O      0.415266666667     0.935400000000     0.257900000000     0          
O        O      0.492600000000     0.783300000000     0.341100000000     0          
O        O      0.532966666667     0.964100000000     0.290900000000     0          
O        O      0.431666666667     0.732100000000     0.395050000000     0          
O        O      0.440066666667     0.941000000000     0.412000000000     0          
O        O      0.506500000000     0.927350000000     0.427250000000     0          
O        O      0.466433333333     0.824050000000     0.271950000000     0          
O        O      0.492866666667     0.980800000000     0.204350000000     0          
O        O      0.587433333333     0.775600000000     0.292250000000     0          
O        O      0.404266666667     0.737700000000     0.031400000000     0          
O        O      0.441366666667     0.720950000000     0.304400000000     0          
O        O      0.612333333333     0.719900000000     0.297350000000     0          
O        O      0.430266666667     0.847200000000     0.334250000000     0          
O        O      0.484500000000     0.828250000000     0.402450000000     0          
O        O      0.384133333333     0.749700000000     0.315400000000     0          
O        O      0.655166666667     0.766250000000     0.327150000000     0          
O        O      0.557200000000     0.999350000000     0.369750000000     0          
O        O      0.399133333333     0.835500000000     0.240300000000     0          
O        O      0.459300000000     0.765350000000     0.250450000000     0          
O        O      0.373833333333     0.982700000000     0.257750000000     0          
O        O      0.367733333333     0.670600000000     0.413850000000     0          
O        O      0.456000000000     0.548900000000     0.381950000000     0          
O        O      0.389166666667     0.631000000000     0.488150000000     0          
O        O      0.353466666667     0.679400000000     0.002950000000     0          
O        O      0.410133333333     0.585450000000     0.324150000000     0          
O        O      0.414066666667     0.527950000000     0.299250000000     0          
O        O      0.373933333333     0.633550000000     0.340400000000     0          
O        O      0.645600000000     0.541150000000     0.487150000000     0          
O        O      0.479633333333     0.549050000000     0.480350000000     0          
O        O      0.631466666667     0.684050000000     0.042500000000     0          
O        O      0.351333333333     0.521150000000     0.318400000000     0          
O        O      0.375033333333     0.954900000000     0.172350000000     0          
O        O      0.418066666667     0.685400000000     0.492100000000     0          
O        O      0.340733333333     0.533300000000     0.408900000000     0          
O        O      0.633700000000     0.714100000000     0.459100000000     0          
O        O      0.401666666667     0.982100000000     0.354950000000     0          
O        O      0.393266666667     0.691000000000     0.338000000000     0          
O        O      0.660166666667     0.677350000000     0.322750000000     0          
O        O      0.366900000000     0.574050000000     0.478050000000     0          
O        O      0.340466666667     0.730800000000     0.045650000000     0          
O        O      0.579233333333     0.525600000000     0.457750000000     0          
O        O      0.429066666667     0.987700000000     0.218600000000     0          
O        O      0.391966666667     0.970950000000     0.445600000000     0          
O        O      0.554333333333     0.969900000000     0.452650000000     0          
O        O      0.403066666667     0.597200000000     0.415750000000     0          
O        O      0.348833333333     0.578250000000     0.347550000000     0          
O        O      0.449200000000     0.999700000000     0.434600000000     0          
O        O      0.511500000000     0.516250000000     0.422850000000     0          
O        O      0.609466666667     0.749350000000     0.380250000000     0          
O        O      0.434200000000     0.585500000000     0.009700000000     0          
O        O      0.374033333333     0.515350000000     0.499550000000     0          
O        O      0.540500000000     0.767300000000     0.507750000000     0          
O        O      0.534400000000     0.579400000000     0.663850000000     0          
O        O      0.622666666667     0.701100000000     0.631950000000     0          
O        O      0.555833333333     0.619000000000     0.738150000000     0          
O        O      0.520133333333     0.570600000000     0.752950000000     0          
O        O      0.576800000000     0.664550000000     0.574150000000     0          
O        O      0.580733333333     0.722050000000     0.549250000000     0          
O        O      0.540600000000     0.616450000000     0.590400000000     0          
O        O      0.478933333333     0.708850000000     0.737150000000     0          
O        O      0.646300000000     0.700950000000     0.730350000000     0          
O        O      0.464800000000     0.565950000000     0.792500000000     0          
O        O      0.518000000000     0.728850000000     0.568400000000     0          
O        O      0.541700000000     0.795100000000     0.922350000000     0          
O        O      0.584733333333     0.564600000000     0.742100000000     0          
O        O      0.507400000000     0.716700000000     0.658900000000     0          
O        O      0.467033333333     0.535900000000     0.709100000000     0          
O        O      0.568333333333     0.767900000000     0.604950000000     0          
O        O      0.559933333333     0.559000000000     0.588000000000     0          
O        O      0.493500000000     0.572650000000     0.572750000000     0          
O        O      0.533566666667     0.675950000000     0.728050000000     0          
O        O      0.507133333333     0.519200000000     0.795650000000     0          
O        O      0.412566666667     0.724400000000     0.707750000000     0          
O        O      0.595733333333     0.762300000000     0.968600000000     0          
O        O      0.558633333333     0.779050000000     0.695600000000     0          
O        O      0.387666666667     0.780100000000     0.702650000000     0          
O        O      0.569733333333     0.652800000000     0.665750000000     0          
O        O      0.515500000000     0.671750000000     0.597550000000     0          
O        O      0.615866666667     0.750300000000     0.684600000000     0          
O        O      0.344833333333     0.733750000000     0.672850000000     0          
O        O      0.442800000000     0.500650000000     0.630250000000     0          
O        O      0.600866666667     0.664500000000     0.759700000000     0          
O        O      0.540700000000     0.734650000000     0.749550000000     0          
O        O      0.626166666667     0.517300000000     0.742250000000     0          
O        O      0.632266666667     0.829400000000     0.586150000000     0          
O        O      0.544000000000     0.951100000000     0.618050000000     0          
O        O      0.610833333333     0.869000000000     0.511850000000     0          
O        O      0.646533333333     0.820600000000     0.997050000000     0          
O        O      0.589866666667     0.914550000000     0.675850000000     0          
O        O      0.585933333333     0.972050000000     0.700750000000     0          
O        O      0.626066666667     0.866450000000     0.659600000000     0          
O        O      0.354400000000     0.958850000000     0.512850000000     0          
O        O      0.520366666667     0.950950000000     0.519650000000     0          
O        O      0.368533333333     0.815950000000     0.957500000000     0          
O        O      0.648666666667     0.978850000000     0.681600000000     0          
O        O      0.624966666667     0.545100000000     0.827650000000     0          
O        O      0.581933333333     0.814600000000     0.507900000000     0          
O        O      0.659266666667     0.966700000000     0.591100000000     0          
O        O      0.366300000000     0.785900000000     0.540900000000     0          
O        O      0.598333333333     0.517900000000     0.645050000000     0          
O        O      0.606733333333     0.809000000000     0.662000000000     0          
O        O      0.339833333333     0.822650000000     0.677250000000     0          
O        O      0.633100000000     0.925950000000     0.521950000000     0          
O        O      0.659533333333     0.769200000000     0.954350000000     0          
O        O      0.420766666667     0.974400000000     0.542250000000     0          
O        O      0.570933333333     0.512300000000     0.781400000000     0          
O        O      0.608033333333     0.529050000000     0.554400000000     0          
O        O      0.445666666667     0.530100000000     0.547350000000     0          
O        O      0.596933333333     0.902800000000     0.584250000000     0          
O        O      0.651166666667     0.921750000000     0.652450000000     0          
O        O      0.550800000000     0.500300000000     0.565400000000     0          
O        O      0.488500000000     0.983750000000     0.577150000000     0          
O        O      0.390533333333     0.750650000000     0.619750000000     0          
O        O      0.565800000000     0.914500000000     0.990300000000     0          
O        O      0.625966666667     0.984650000000     0.500450000000     0          
O        O      0.459500000000     0.732700000000     0.992250000000     0          
O        O      0.465600000000     0.920600000000     0.836150000000     0          
O        O      0.377333333333     0.798900000000     0.868050000000     0          
O        O      0.444166666667     0.881000000000     0.761850000000     0          
O        O      0.479866666667     0.929400000000     0.747050000000     0          
O        O      0.423200000000     0.835450000000     0.925850000000     0          
O        O      0.419266666667     0.777950000000     0.950750000000     0          
O        O      0.459400000000     0.883550000000     0.909600000000     0          
O        O      0.521066666667     0.791150000000     0.762850000000     0          
O        O      0.353700000000     0.799050000000     0.769650000000     0          
O        O      0.535200000000     0.934050000000     0.707500000000     0          
O        O      0.482000000000     0.771150000000     0.931600000000     0          
O        O      0.458300000000     0.704900000000     0.577650000000     0          
O        O      0.415266666667     0.935400000000     0.757900000000     0          
O        O      0.492600000000     0.783300000000     0.841100000000     0          
O        O      0.532966666667     0.964100000000     0.790900000000     0          
O        O      0.431666666667     0.732100000000     0.895050000000     0          
O        O      0.440066666667     0.941000000000     0.912000000000     0          
O        O      0.506500000000     0.927350000000     0.927250000000     0          
O        O      0.466433333333     0.824050000000     0.771950000000     0          
O        O      0.492866666667     0.980800000000     0.704350000000     0          
O        O      0.587433333333     0.775600000000     0.792250000000     0          
O        O      0.404266666667     0.737700000000     0.531400000000     0          
O        O      0.441366666667     0.720950000000     0.804400000000     0          
O        O      0.612333333333     0.719900000000     0.797350000000     0          
O        O      0.430266666667     0.847200000000     0.834250000000     0          
O        O      0.484500000000     0.828250000000     0.902450000000     0          
O        O      0.384133333333     0.749700000000     0.815400000000     0          
O        O      0.655166666667     0.766250000000     0.827150000000     0          
O        O      0.557200000000     0.999350000000     0.869750000000     0          
O        O      0.399133333333     0.835500000000     0.740300000000     0          
O        O      0.459300000000     0.765350000000     0.750450000000     0          
O        O      0.373833333333     0.982700000000     0.757750000000     0          
O        O      0.367733333333     0.670600000000     0.913850000000     0          
O        O      0.456000000000     0.548900000000     0.881950000000     0          
O        O      0.389166666667     0.631000000000     0.988150000000     0          
O        O      0.353466666667     0.679400000000     0.502950000000     0          
O        O      0.410133333333     0.585450000000     0.824150000000     0          
O        O      0.414066666667     0.527950000000     0.799250000000     0          
O        O      0.373933333333     0.633550000000     0.840400000000     0          
O        O      0.645600000000     0.541150000000     0.987150000000     0          
O        O      0.479633333333     0.549050000000     0.980350000000     0          
O        O      0.631466666667     0.684050000000     0.542500000000     0          
O        O      0.351333333333     0.521150000000     0.818400000000     0          
O        O      0.375033333333     0.954900000000     0.672350000000     0          
O        O      0.418066666667     0.685400000000     0.992100000000     0          
O        O      0.340733333333     0.533300000000     0.908900000000     0          
O        O      0.633700000000     0.714100000000     0.959100000000     0          
O        O      0.401666666667     0.982100000000     0.854950000000     0          
O        O      0.393266666667     0.691000000000     0.838000000000     0          
O        O      0.660166666667     0.677350000000     0.822750000000     0          
O        O      0.366900000000     0.574050000000     0.978050000000     0          
O        O      0.340466666667     0.730800000000     0.545650000000     0          
O        O      0.579233333333     0.525600000000     0.957750000000     0          
O        O      0.429066666667     0.987700000000     0.718600000000     0          
O        O      0.391966666667     0.970950000000     0.945600000000     0          
O        O      0.554333333333     0.969900000000     0.952650000000     0          
O        O      0.403066666667     0.597200000000     0.915750000000     0          
O        O      0.348833333333     0.578250000000     0.847550000000     0          
O        O      0.449200000000     0.999700000000     0.934600000000     0          
O        O      0.511500000000     0.516250000000     0.922850000000     0          
O        O      0.609466666667     0.749350000000     0.880250000000     0          
O        O      0.434200000000     0.585500000000     0.509700000000     0          
O        O      0.374033333333     0.515350000000     0.999550000000     0          
O        O      0.873833333333     0.267300000000     0.007750000000     0          
O        O      0.867733333333     0.079400000000     0.163850000000     0          
O        O      0.956000000000     0.201100000000     0.131950000000     0          
O        O      0.889166666667     0.119000000000     0.238150000000     0          
O        O      0.853466666667     0.070600000000     0.252950000000     0          
O        O      0.910133333333     0.164550000000     0.074150000000     0          
O        O      0.914066666667     0.222050000000     0.049250000000     0          
O        O      0.873933333333     0.116450000000     0.090400000000     0          
O        O      0.812266666667     0.208850000000     0.237150000000     0          
O        O      0.979633333333     0.200950000000     0.230350000000     0          
O        O      0.798133333333     0.065950000000     0.292500000000     0          
O        O      0.851333333333     0.228850000000     0.068400000000     0          
O        O      0.875033333333     0.295100000000     0.422350000000     0          
O        O      0.918066666667     0.064600000000     0.242100000000     0          
O        O      0.840733333333     0.216700000000     0.158900000000     0          
O        O      0.800366666667     0.035900000000     0.209100000000     0          
O        O      0.901666666667     0.267900000000     0.104950000000     0          
O        O      0.893266666667     0.059000000000     0.088000000000     0          
O        O      0.826833333333     0.072650000000     0.072750000000     0          
O        O      0.866900000000     0.175950000000     0.228050000000     0          
O        O      0.840466666667     0.019200000000     0.295650000000     0          
O        O      0.745900000000     0.224400000000     0.207750000000     0          
O        O      0.929066666667     0.262300000000     0.468600000000     0          
O        O      0.891966666667     0.279050000000     0.195600000000     0          
O        O      0.721000000000     0.280100000000     0.202650000000     0          
O        O      0.903066666667     0.152800000000     0.165750000000     0          
O        O      0.848833333333     0.171750000000     0.097550000000     0          
O        O      0.949200000000     0.250300000000     0.184600000000     0          
O        O      0.678166666667     0.233750000000     0.172850000000     0          
O        O      0.776133333333     0.000650000000     0.130250000000     0          
O        O      0.934200000000     0.164500000000     0.259700000000     0          
O        O      0.874033333333     0.234650000000     0.249550000000     0          
O        O      0.959500000000     0.017300000000     0.242250000000     0          
O        O      0.965600000000     0.329400000000     0.086150000000     0          
O        O      0.877333333333     0.451100000000     0.118050000000     0          
O        O      0.944166666667     0.369000000000     0.011850000000     0          
O        O      0.979866666667     0.320600000000     0.497050000000     0          
O        O      0.923200000000     0.414550000000     0.175850000000     0          
O        O      0.919266666667     0.472050000000     0.200750000000     0          
O        O      0.959400000000     0.366450000000     0.159600000000     0          
O        O      0.687733333333     0.458850000000     0.012850000000     0          
O        O      0.853700000000     0.450950000000     0.019650000000     0          
O        O      0.701866666667     0.315950000000     0.457500000000     0          
O        O      0.982000000000     0.478850000000     0.181600000000     0          
O        O      0.958300000000     0.045100000000     0.327650000000     0          
O        O      0.915266666667     0.314600000000     0.007900000000     0          
O        O      0.992600000000     0.466700000000     0.091100000000     0          
O        O      0.699633333333     0.285900000000     0.040900000000     0          
O        O      0.931666666667     0.017900000000     0.145050000000     0          
O        O      0.940066666667     0.309000000000     0.162000000000     0          
O        O      0.673166666667     0.322650000000     0.177250000000     0          
O        O      0.966433333333     0.425950000000     0.021950000000     0          
O        O      0.992866666667     0.269200000000     0.454350000000     0          
O        O      0.754100000000     0.474400000000     0.042250000000     0          
O        O      0.904266666667     0.012300000000     0.281400000000     0          
O        O      0.941366666667     0.029050000000     0.054400000000     0          
O        O      0.779000000000     0.030100000000     0.047350000000     0          
O        O      0.930266666667     0.402800000000     0.084250000000     0          
O        O      0.984500000000     0.421750000000     0.152450000000     0          
O        O      0.884133333333     0.000300000000     0.065400000000     0          
O        O      0.821833333333     0.483750000000     0.077150000000     0          
O        O      0.723866666667     0.250650000000     0.119750000000     0          
O        O      0.899133333333     0.414500000000     0.490300000000     0          
O        O      0.959300000000     0.484650000000     0.000450000000     0          
O        O      0.792833333333     0.232700000000     0.492250000000     0          
O        O      0.798933333333     0.420600000000     0.336150000000     0          
O        O      0.710666666667     0.298900000000     0.368050000000     0          
O        O      0.777500000000     0.381000000000     0.261850000000     0          
O        O      0.813200000000     0.429400000000     0.247050000000     0          
O        O      0.756533333333     0.335450000000     0.425850000000     0          
O        O      0.752600000000     0.277950000000     0.450750000000     0          
O        O      0.792733333333     0.383550000000     0.409600000000     0          
O        O      0.854400000000     0.291150000000     0.262850000000     0          
O        O      0.687033333333     0.299050000000     0.269650000000     0          
O        O      0.868533333333     0.434050000000     0.207500000000     0          
O        O      0.815333333333     0.271150000000     0.431600000000     0          
O        O      0.791633333333     0.204900000000     0.077650000000     0          
O        O      0.748600000000     0.435400000000     0.257900000000     0          
O        O      0.825933333333     0.283300000000     0.341100000000     0          
O        O      0.866300000000     0.464100000000     0.290900000000     0          
O        O      0.765000000000     0.232100000000     0.395050000000     0          
O        O      0.773400000000     0.441000000000     0.412000000000     0          
O        O      0.839833333333     0.427350000000     0.427250000000     0          
O        O      0.799766666667     0.324050000000     0.271950000000     0          
O        O      0.826200000000     0.480800000000     0.204350000000     0          
O        O      0.920766666667     0.275600000000     0.292250000000     0          
O        O      0.737600000000     0.237700000000     0.031400000000     0          
O        O      0.774700000000     0.220950000000     0.304400000000     0          
O        O      0.945666666667     0.219900000000     0.297350000000     0          
O        O      0.763600000000     0.347200000000     0.334250000000     0          
O        O      0.817833333333     0.328250000000     0.402450000000     0          
O        O      0.717466666667     0.249700000000     0.315400000000     0          
O        O      0.988500000000     0.266250000000     0.327150000000     0          
O        O      0.890533333333     0.499350000000     0.369750000000     0          
O        O      0.732466666667     0.335500000000     0.240300000000     0          
O        O      0.792633333333     0.265350000000     0.250450000000     0          
O        O      0.707166666667     0.482700000000     0.257750000000     0          
O        O      0.701066666667     0.170600000000     0.413850000000     0          
O        O      0.789333333333     0.048900000000     0.381950000000     0          
O        O      0.722500000000     0.131000000000     0.488150000000     0          
O        O      0.686800000000     0.179400000000     0.002950000000     0          
O        O      0.743466666667     0.085450000000     0.324150000000     0          
O        O      0.747400000000     0.027950000000     0.299250000000     0          
O        O      0.707266666667     0.133550000000     0.340400000000     0          
O        O      0.978933333333     0.041150000000     0.487150000000     0          
O        O      0.812966666667     0.049050000000     0.480350000000     0          
O        O      0.964800000000     0.184050000000     0.042500000000     0          
O        O      0.684666666667     0.021150000000     0.318400000000     0          
O        O      0.708366666667     0.454900000000     0.172350000000     0          
O        O      0.751400000000     0.185400000000     0.492100000000     0          
O        O      0.674066666667     0.033300000000     0.408900000000     0          
O        O      0.967033333333     0.214100000000     0.459100000000     0          
O        O      0.735000000000     0.482100000000     0.354950000000     0          
O        O      0.726600000000     0.191000000000     0.338000000000     0          
O        O      0.993500000000     0.177350000000     0.322750000000     0          
O        O      0.700233333333     0.074050000000     0.478050000000     0          
O        O      0.673800000000     0.230800000000     0.045650000000     0          
O        O      0.912566666667     0.025600000000     0.457750000000     0          
O        O      0.762400000000     0.487700000000     0.218600000000     0          
O        O      0.725300000000     0.470950000000     0.445600000000     0          
O        O      0.887666666667     0.469900000000     0.452650000000     0          
O        O      0.736400000000     0.097200000000     0.415750000000     0          
O        O      0.682166666667     0.078250000000     0.347550000000     0          
O        O      0.782533333333     0.499700000000     0.434600000000     0          
O        O      0.844833333333     0.016250000000     0.422850000000     0          
O        O      0.942800000000     0.249350000000     0.380250000000     0          
O        O      0.767533333333     0.085500000000     0.009700000000     0          
O        O      0.707366666667     0.015350000000     0.499550000000     0          
O        O      0.873833333333     0.267300000000     0.507750000000     0          
O        O      0.867733333333     0.079400000000     0.663850000000     0          
O        O      0.956000000000     0.201100000000     0.631950000000     0          
O        O      0.889166666667     0.119000000000     0.738150000000     0          
O        O      0.853466666667     0.070600000000     0.752950000000     0          
O        O      0.910133333333     0.164550000000     0.574150000000     0          
O        O      0.914066666667     0.222050000000     0.549250000000     0          
O        O      0.873933333333     0.116450000000     0.590400000000     0          
O        O      0.812266666667     0.208850000000     0.737150000000     0          
O        O      0.979633333333     0.200950000000     0.730350000000     0          
O        O      0.798133333333     0.065950000000     0.792500000000     0          
O        O      0.851333333333     0.228850000000     0.568400000000     0          
O        O      0.875033333333     0.295100000000     0.922350000000     0          
O        O      0.918066666667     0.064600000000     0.742100000000     0          
O        O      0.840733333333     0.216700000000     0.658900000000     0          
O        O      0.800366666667     0.035900000000     0.709100000000     0          
O        O      0.901666666667     0.267900000000     0.604950000000     0          
O        O      0.893266666667     0.059000000000     0.588000000000     0          
O        O      0.826833333333     0.072650000000     0.572750000000     0          
O        O      0.866900000000     0.175950000000     0.728050000000     0          
O        O      0.840466666667     0.019200000000     0.795650000000     0          
O        O      0.745900000000     0.224400000000     0.707750000000     0          
O        O      0.929066666667     0.262300000000     0.968600000000     0          
O        O      0.891966666667     0.279050000000     0.695600000000     0          
O        O      0.721000000000     0.280100000000     0.702650000000     0          
O        O      0.903066666667     0.152800000000     0.665750000000     0          
O        O      0.848833333333     0.171750000000     0.597550000000     0          
O        O      0.949200000000     0.250300000000     0.684600000000     0          
O        O      0.678166666667     0.233750000000     0.672850000000     0          
O        O      0.776133333333     0.000650000000     0.630250000000     0          
O        O      0.934200000000     0.164500000000     0.759700000000     0          
O        O      0.874033333333     0.234650000000     0.749550000000     0          
O        O      0.959500000000     0.017300000000     0.742250000000     0          
O        O      0.965600000000     0.329400000000     0.586150000000     0          
O        O      0.877333333333     0.451100000000     0.618050000000     0          
O        O      0.944166666667     0.369000000000     0.511850000000     0          
O        O      0.979866666667     0.320600000000     0.997050000000     0          
O        O      0.923200000000     0.414550000000     0.675850000000     0          
O        O      0.919266666667     0.472050000000     0.700750000000     0          
O        O      0.959400000000     0.366450000000     0.659600000000     0          
O        O      0.687733333333     0.458850000000     0.512850000000     0          
O        O      0.853700000000     0.450950000000     0.519650000000     0          
O        O      0.701866666667     0.315950000000     0.957500000000     0          
O        O      0.982000000000     0.478850000000     0.681600000000     0          
O        O      0.958300000000     0.045100000000     0.827650000000     0          
O        O      0.915266666667     0.314600000000     0.507900000000     0          
O        O      0.992600000000     0.466700000000     0.591100000000     0          
O        O      0.699633333333     0.285900000000     0.540900000000     0          
O        O      0.931666666667     0.017900000000     0.645050000000     0          
O        O      0.940066666667     0.309000000000     0.662000000000     0          
O        O      0.673166666667     0.322650000000     0.677250000000     0          
O        O      0.966433333333     0.425950000000     0.521950000000     0          
O        O      0.992866666667     0.269200000000     0.954350000000     0          
O        O      0.754100000000     0.474400000000     0.542250000000     0          
O        O      0.904266666667     0.012300000000     0.781400000000     0          
O        O      0.941366666667     0.029050000000     0.554400000000     0          
O        O      0.779000000000     0.030100000000     0.547350000000     0          
O        O      0.930266666667     0.402800000000     0.584250000000     0          
O        O      0.984500000000     0.421750000000     0.652450000000     0          
O        O      0.884133333333     0.000300000000     0.565400000000     0          
O        O      0.821833333333     0.483750000000     0.577150000000     0          
O        O      0.723866666667     0.250650000000     0.619750000000     0          
O        O      0.899133333333     0.414500000000     0.990300000000     0          
O        O      0.959300000000     0.484650000000     0.500450000000     0          
O        O      0.792833333333     0.232700000000     0.992250000000     0          
O        O      0.798933333333     0.420600000000     0.836150000000     0          
O        O      0.710666666667     0.298900000000     0.868050000000     0          
O        O      0.777500000000     0.381000000000     0.761850000000     0          
O        O      0.813200000000     0.429400000000     0.747050000000     0          
O        O      0.756533333333     0.335450000000     0.925850000000     0          
O        O      0.752600000000     0.277950000000     0.950750000000     0          
O        O      0.792733333333     0.383550000000     0.909600000000     0          
O        O      0.854400000000     0.291150000000     0.762850000000     0          
O        O      0.687033333333     0.299050000000     0.769650000000     0          
O        O      0.868533333333     0.434050000000     0.707500000000     0          
O        O      0.815333333333     0.271150000000     0.931600000000     0          
O        O      0.791633333333     0.204900000000     0.577650000000     0          
O        O      0.748600000000     0.435400000000     0.757900000000     0          
O        O      0.825933333333     0.283300000000     0.841100000000     0          
O        O      0.866300000000     0.464100000000     0.790900000000     0          
O        O      0.765000000000     0.232100000000     0.895050000000     0          
O        O      0.773400000000     0.441000000000     0.912000000000     0          
O        O      0.839833333333     0.427350000000     0.927250000000     0          
O        O      0.799766666667     0.324050000000     0.771950000000     0          
O        O      0.826200000000     0.480800000000     0.704350000000     0          
O        O      0.920766666667     0.275600000000     0.792250000000     0          
O        O      0.737600000000     0.237700000000     0.531400000000     0          
O        O      0.774700000000     0.220950000000     0.804400000000     0          
O        O      0.945666666667     0.219900000000     0.797350000000     0          
O        O      0.763600000000     0.347200000000     0.834250000000     0          
O        O      0.817833333333     0.328250000000     0.902450000000     0          
O        O      0.717466666667     0.249700000000     0.815400000000     0          
O        O      0.988500000000     0.266250000000     0.827150000000     0          
O        O      0.890533333333     0.499350000000     0.869750000000     0          
O        O      0.732466666667     0.335500000000     0.740300000000     0          
O        O      0.792633333333     0.265350000000     0.750450000000     0          
O        O      0.707166666667     0.482700000000     0.757750000000     0          
O        O      0.701066666667     0.170600000000     0.913850000000     0          
O        O      0.789333333333     0.048900000000     0.881950000000     0          
O        O      0.722500000000     0.131000000000     0.988150000000     0          
O        O      0.686800000000     0.179400000000     0.502950000000     0          
O        O      0.743466666667     0.085450000000     0.824150000000     0          
O        O      0.747400000000     0.027950000000     0.799250000000     0          
O        O      0.707266666667     0.133550000000     0.840400000000     0          
O        O      0.978933333333     0.041150000000     0.987150000000     0          
O        O      0.812966666667     0.049050000000     0.980350000000     0          
O        O      0.964800000000     0.184050000000     0.542500000000     0          
O        O      0.684666666667     0.021150000000     0.818400000000     0          
O        O      0.708366666667     0.454900000000     0.672350000000     0          
O        O      0.751400000000     0.185400000000     0.992100000000     0          
O        O      0.674066666667     0.033300000000     0.908900000000     0          
O        O      0.967033333333     0.214100000000     0.959100000000     0          
O        O      0.735000000000     0.482100000000     0.854950000000     0          
O        O      0.726600000000     0.191000000000     0.838000000000     0          
O        O      0.993500000000     0.177350000000     0.822750000000     0          
O        O      0.700233333333     0.074050000000     0.978050000000     0          
O        O      0.673800000000     0.230800000000     0.545650000000     0          
O        O      0.912566666667     0.025600000000     0.957750000000     0          
O        O      0.762400000000     0.487700000000     0.718600000000     0          
O        O      0.725300000000     0.470950000000     0.945600000000     0          
O        O      0.887666666667     0.469900000000     0.952650000000     0          
O        O      0.736400000000     0.097200000000     0.915750000000     0          
O        O      0.682166666667     0.078250000000     0.847550000000     0          
O        O      0.782533333333     0.499700000000     0.934600000000     0          
O        O      0.844833333333     0.016250000000     0.922850000000     0          
O        O      0.942800000000     0.249350000000     0.880250000000     0          
O        O      0.767533333333     0.085500000000     0.509700000000     0          
O        O      0.707366666667     0.015350000000     0.999550000000     0          
O        O      0.873833333333     0.767300000000     0.007750000000     0          
O        O      0.867733333333     0.579400000000     0.163850000000     0          
O        O      0.956000000000     0.701100000000     0.131950000000     0          
O        O      0.889166666667     0.619000000000     0.238150000000     0          
O        O      0.853466666667     0.570600000000     0.252950000000     0          
O        O      0.910133333333     0.664550000000     0.074150000000     0          
O        O      0.914066666667     0.722050000000     0.049250000000     0          
O        O      0.873933333333     0.616450000000     0.090400000000     0          
O        O      0.812266666667     0.708850000000     0.237150000000     0          
O        O      0.979633333333     0.700950000000     0.230350000000     0          
O        O      0.798133333333     0.565950000000     0.292500000000     0          
O        O      0.851333333333     0.728850000000     0.068400000000     0          
O        O      0.875033333333     0.795100000000     0.422350000000     0          
O        O      0.918066666667     0.564600000000     0.242100000000     0          
O        O      0.840733333333     0.716700000000     0.158900000000     0          
O        O      0.800366666667     0.535900000000     0.209100000000     0          
O        O      0.901666666667     0.767900000000     0.104950000000     0          
O        O      0.893266666667     0.559000000000     0.088000000000     0          
O        O      0.826833333333     0.572650000000     0.072750000000     0          
O        O      0.866900000000     0.675950000000     0.228050000000     0          
O        O      0.840466666667     0.519200000000     0.295650000000     0          
O        O      0.745900000000     0.724400000000     0.207750000000     0          
O        O      0.929066666667     0.762300000000     0.468600000000     0          
O        O      0.891966666667     0.779050000000     0.195600000000     0          
O        O      0.721000000000     0.780100000000     0.202650000000     0          
O        O      0.903066666667     0.652800000000     0.165750000000     0          
O        O      0.848833333333     0.671750000000     0.097550000000     0          
O        O      0.949200000000     0.750300000000     0.184600000000     0          
O        O      0.678166666667     0.733750000000     0.172850000000     0          
O        O      0.776133333333     0.500650000000     0.130250000000     0          
O        O      0.934200000000     0.664500000000     0.259700000000     0          
O        O      0.874033333333     0.734650000000     0.249550000000     0          
O        O      0.959500000000     0.517300000000     0.242250000000     0          
O        O      0.965600000000     0.829400000000     0.086150000000     0          
O        O      0.877333333333     0.951100000000     0.118050000000     0          
O        O      0.944166666667     0.869000000000     0.011850000000     0          
O        O      0.979866666667     0.820600000000     0.497050000000     0          
O        O      0.923200000000     0.914550000000     0.175850000000     0          
O        O      0.919266666667     0.972050000000     0.200750000000     0          
O        O      0.959400000000     0.866450000000     0.159600000000     0          
O        O      0.687733333333     0.958850000000     0.012850000000     0          
O        O      0.853700000000     0.950950000000     0.019650000000     0          
O        O      0.701866666667     0.815950000000     0.457500000000     0          
O        O      0.982000000000     0.978850000000     0.181600000000     0          
O        O      0.958300000000     0.545100000000     0.327650000000     0          
O        O      0.915266666667     0.814600000000     0.007900000000     0          
O        O      0.992600000000     0.966700000000     0.091100000000     0          
O        O      0.699633333333     0.785900000000     0.040900000000     0          
O        O      0.931666666667     0.517900000000     0.145050000000     0          
O        O      0.940066666667     0.809000000000     0.162000000000     0          
O        O      0.673166666667     0.822650000000     0.177250000000     0          
O        O      0.966433333333     0.925950000000     0.021950000000     0          
O        O      0.992866666667     0.769200000000     0.454350000000     0          
O        O      0.754100000000     0.974400000000     0.042250000000     0          
O        O      0.904266666667     0.512300000000     0.281400000000     0          
O        O      0.941366666667     0.529050000000     0.054400000000     0          
O        O      0.779000000000     0.530100000000     0.047350000000     0          
O        O      0.930266666667     0.902800000000     0.084250000000     0          
O        O      0.984500000000     0.921750000000     0.152450000000     0          
O        O      0.884133333333     0.500300000000     0.065400000000     0          
O        O      0.821833333333     0.983750000000     0.077150000000     0          
O        O      0.723866666667     0.750650000000     0.119750000000     0          
O        O      0.899133333333     0.914500000000     0.490300000000     0          
O        O      0.959300000000     0.984650000000     0.000450000000     0          
O        O      0.792833333333     0.732700000000     0.492250000000     0          
O        O      0.798933333333     0.920600000000     0.336150000000     0          
O        O      0.710666666667     0.798900000000     0.368050000000     0          
O        O      0.777500000000     0.881000000000     0.261850000000     0          
O        O      0.813200000000     0.929400000000     0.247050000000     0          
O        O      0.756533333333     0.835450000000     0.425850000000     0          
O        O      0.752600000000     0.777950000000     0.450750000000     0          
O        O      0.792733333333     0.883550000000     0.409600000000     0          
O        O      0.854400000000     0.791150000000     0.262850000000     0          
O        O      0.687033333333     0.799050000000     0.269650000000     0          
O        O      0.868533333333     0.934050000000     0.207500000000     0          
O        O      0.815333333333     0.771150000000     0.431600000000     0          
O        O      0.791633333333     0.704900000000     0.077650000000     0          
O        O      0.748600000000     0.935400000000     0.257900000000     0          
O        O      0.825933333333     0.783300000000     0.341100000000     0          
O        O      0.866300000000     0.964100000000     0.290900000000     0          
O        O      0.765000000000     0.732100000000     0.395050000000     0          
O        O      0.773400000000     0.941000000000     0.412000000000     0          
O        O      0.839833333333     0.927350000000     0.427250000000     0          
O        O      0.799766666667     0.824050000000     0.271950000000     0          
O        O      0.826200000000     0.980800000000     0.204350000000     0          
O        O      0.920766666667     0.775600000000     0.292250000000     0          
O        O      0.737600000000     0.737700000000     0.031400000000     0          
O        O      0.774700000000     0.720950000000     0.304400000000     0          
O        O      0.945666666667     0.719900000000     0.297350000000     0          
O        O      0.763600000000     0.847200000000     0.334250000000     0          
O        O      0.817833333333     0.828250000000     0.402450000000     0          
O        O      0.717466666667     0.749700000000     0.315400000000     0          
O        O      0.988500000000     0.766250000000     0.327150000000     0          
O        O      0.890533333333     0.999350000000     0.369750000000     0          
O        O      0.732466666667     0.835500000000     0.240300000000     0          
O        O      0.792633333333     0.765350000000     0.250450000000     0          
O        O      0.707166666667     0.982700000000     0.257750000000     0          
O        O      0.701066666667     0.670600000000     0.413850000000     0          
O        O      0.789333333333     0.548900000000     0.381950000000     0          
O        O      0.722500000000     0.631000000000     0.488150000000     0          
O        O      0.686800000000     0.679400000000     0.002950000000     0          
O        O      0.743466666667     0.585450000000     0.324150000000     0          
O        O      0.747400000000     0.527950000000     0.299250000000     0          
O        O      0.707266666667     0.633550000000     0.340400000000     0          
O        O      0.978933333333     0.541150000000     0.487150000000     0          
O        O      0.812966666667     0.549050000000     0.480350000000     0          
O        O      0.964800000000     0.684050000000     0.042500000000     0          
O        O      0.684666666667     0.521150000000     0.318400000000     0          
O        O      0.708366666667     0.954900000000     0.172350000000     0          
O        O      0.751400000000     0.685400000000     0.492100000000     0          
O        O      0.674066666667     0.533300000000     0.408900000000     0          
O        O      0.967033333333     0.714100000000     0.459100000000     0          
O        O      0.735000000000     0.982100000000     0.354950000000     0          
O        O      0.726600000000     0.691000000000     0.338000000000     0          
O        O      0.993500000000     0.677350000000     0.322750000000     0          
O        O      0.700233333333     0.574050000000     0.478050000000     0          
O        O      0.673800000000     0.730800000000     0.045650000000     0          
O        O      0.912566666667     0.525600000000     0.457750000000     0          
O        O      0.762400000000     0.987700000000     0.218600000000     0          
O        O      0.725300000000     0.970950000000     0.445600000000     0          
O        O      0.887666666667     0.969900000000     0.452650000000     0          
O        O      0.736400000000     0.597200000000     0.415750000000     0          
O        O      0.682166666667     0.578250000000     0.347550000000     0          
O        O      0.782533333333     0.999700000000     0.434600000000     0          
O        O      0.844833333333     0.516250000000     0.422850000000     0          
O        O      0.942800000000     0.749350000000     0.380250000000     0          
O        O      0.767533333333     0.585500000000     0.009700000000     0          
O        O      0.707366666667     0.515350000000     0.499550000000     0          
O        O      0.873833333333     0.767300000000     0.507750000000     0          
O        O      0.867733333333     0.579400000000     0.663850000000     0          
O        O      0.956000000000     0.701100000000     0.631950000000     0          
O        O      0.889166666667     0.619000000000     0.738150000000     0          
O        O      0.853466666667     0.570600000000     0.752950000000     0          
O        O      0.910133333333     0.664550000000     0.574150000000     0          
O        O      0.914066666667     0.722050000000     0.549250000000     0          
O        O      0.873933333333     0.616450000000     0.590400000000     0          
O        O      0.812266666667     0.708850000000     0.737150000000     0          
O        O      0.979633333333     0.700950000000     0.730350000000     0          
O        O      0.798133333333     0.565950000000     0.792500000000     0          
O        O      0.851333333333     0.728850000000     0.568400000000     0          
O        O      0.875033333333     0.795100000000     0.922350000000     0          
O        O      0.918066666667     0.564600000000     0.742100000000     0          
O        O      0.840733333333     0.716700000000     0.658900000000     0          
O        O      0.800366666667     0.535900000000     0.709100000000     0          
O        O      0.901666666667     0.767900000000     0.604950000000     0          
O        O      0.893266666667     0.559000000000     0.588000000000     0          
O        O      0.826833333333     0.572650000000     0.572750000000     0          
O        O      0.866900000000     0.675950000000     0.728050000000     0          
O        O      0.840466666667     0.519200000000     0.795650000000     0          
O        O      0.745900000000     0.724400000000     0.707750000000     0          
O        O      0.929066666667     0.762300000000     0.968600000000     0          
O        O      0.891966666667     0.779050000000     0.695600000000     0          
O        O      0.721000000000     0.780100000000     0.702650000000     0          
O        O      0.903066666667     0.652800000000     0.665750000000     0          
O        O      0.848833333333     0.671750000000     0.597550000000     0          
O        O      0.949200000000     0.750300000000     0.684600000000     0          
O        O      0.678166666667     0.733750000000     0.672850000000     0          
O        O      0.776133333333     0.500650000000     0.630250000000     0          
O        O      0.934200000000     0.664500000000     0.759700000000     0          
O        O      0.874033333333     0.734650000000     0.749550000000     0          
O        O      0.959500000000     0.517300000000     0.742250000000     0          
O        O      0.965600000000     0.829400000000     0.586150000000     0          
O        O      0.877333333333     0.951100000000     0.618050000000     0          
O        O      0.944166666667     0.869000000000     0.511850000000     0          
O        O      0.979866666667     0.820600000000     0.997050000000     0          
O        O      0.923200000000     0.914550000000     0.675850000000     0          
O        O      0.919266666667     0.972050000000     0.700750000000     0          
O        O      0.959400000000     0.866450000000     0.659600000000     0          
O        O      0.687733333333     0.958850000000     0.512850000000     0          
O        O      0.853700000000     0.950950000000     0.519650000000     0          
O        O      0.701866666667     0.815950000000     0.957500000000     0          
O        O      0.982000000000     0.978850000000     0.681600000000     0          
O        O      0.958300000000     0.545100000000     0.827650000000     0          
O        O      0.915266666667     0.814600000000     0.507900000000     0          
O        O      0.992600000000     0.966700000000     0.591100000000     0          
O        O      0.699633333333     0.785900000000     0.540900000000     0          
O        O      0.931666666667     0.517900000000     0.645050000000     0          
O        O      0.940066666667     0.809000000000     0.662000000000     0          
O        O      0.673166666667     0.822650000000     0.677250000000     0          
O        O      0.966433333333     0.925950000000     0.521950000000     0          
O        O      0.992866666667     0.769200000000     0.954350000000     0          
O        O      0.754100000000     0.974400000000     0.542250000000     0          
O        O      0.904266666667     0.512300000000     0.781400000000     0          
O        O      0.941366666667     0.529050000000     0.554400000000     0          
O        O      0.779000000000     0.530100000000     0.547350000000     0          
O        O      0.930266666667     0.902800000000     0.584250000000     0          
O        O      0.984500000000     0.921750000000     0.652450000000     0          
O        O      0.884133333333     0.500300000000     0.565400000000     0          
O        O      0.821833333333     0.983750000000     0.577150000000     0          
O        O      0.723866666667     0.750650000000     0.619750000000     0          
O        O      0.899133333333     0.914500000000     0.990300000000     0          
O        O      0.959300000000     0.984650000000     0.500450000000     0          
O        O      0.792833333333     0.732700000000     0.992250000000     0          
O        O      0.798933333333     0.920600000000     0.836150000000     0          
O        O      0.710666666667     0.798900000000     0.868050000000     0          
O        O      0.777500000000     0.881000000000     0.761850000000     0          
O        O      0.813200000000     0.929400000000     0.747050000000     0          
O        O      0.756533333333     0.835450000000     0.925850000000     0          
O        O      0.752600000000     0.777950000000     0.950750000000     0          
O        O      0.792733333333     0.883550000000     0.909600000000     0          
O        O      0.854400000000     0.791150000000     0.762850000000     0          
O        O      0.687033333333     0.799050000000     0.769650000000     0          
O        O      0.868533333333     0.934050000000     0.707500000000     0          
O        O      0.815333333333     0.771150000000     0.931600000000     0          
O        O      0.791633333333     0.704900000000     0.577650000000     0          
O        O      0.748600000000     0.935400000000     0.757900000000     0          
O        O      0.825933333333     0.783300000000     0.841100000000     0          
O        O      0.866300000000     0.964100000000     0.790900000000     0          
O        O      0.765000000000     0.732100000000     0.895050000000     0          
O        O      0.773400000000     0.941000000000     0.912000000000     0          
O        O      0.839833333333     0.927350000000     0.927250000000     0          
O        O      0.799766666667     0.824050000000     0.771950000000     0          
O        O      0.826200000000     0.980800000000     0.704350000000     0          
O        O      0.920766666667     0.775600000000     0.792250000000     0          
O        O      0.737600000000     0.737700000000     0.531400000000     0          
O        O      0.774700000000     0.720950000000     0.804400000000     0          
O        O      0.945666666667     0.719900000000     0.797350000000     0          
O        O      0.763600000000     0.847200000000     0.834250000000     0          
O        O      0.817833333333     0.828250000000     0.902450000000     0          
O        O      0.717466666667     0.749700000000     0.815400000000     0          
O        O      0.988500000000     0.766250000000     0.827150000000     0          
O        O      0.890533333333     0.999350000000     0.869750000000     0          
O        O      0.732466666667     0.835500000000     0.740300000000     0          
O        O      0.792633333333     0.765350000000     0.750450000000     0          
O        O      0.707166666667     0.982700000000     0.757750000000     0          
O        O      0.701066666667     0.670600000000     0.913850000000     0          
O        O      0.789333333333     0.548900000000     0.881950000000     0          
O        O      0.722500000000     0.631000000000     0.988150000000     0          
O        O      0.686800000000     0.679400000000     0.502950000000     0          
O        O      0.743466666667     0.585450000000     0.824150000000     0          
O        O      0.747400000000     0.527950000000     0.799250000000     0          
O        O      0.707266666667     0.633550000000     0.840400000000     0          
O        O      0.978933333333     0.541150000000     0.987150000000     0          
O        O      0.812966666667     0.549050000000     0.980350000000     0          
O        O      0.964800000000     0.684050000000     0.542500000000     0          
O        O      0.684666666667     0.521150000000     0.818400000000     0          
O        O      0.708366666667     0.954900000000     0.672350000000     0          
O        O      0.751400000000     0.685400000000     0.992100000000     0          
O        O      0.674066666667     0.533300000000     0.908900000000     0          
O        O      0.967033333333     0.714100000000     0.959100000000     0          
O        O      0.735000000000     0.982100000000     0.854950000000     0          
O        O      0.726600000000     0.691000000000     0.838000000000     0          
O        O      0.993500000000     0.677350000000     0.822750000000     0          
O        O      0.700233333333     0.574050000000     0.978050000000     0          
O        O      0.673800000000     0.730800000000     0.545650000000     0          
O        O      0.912566666667     0.525600000000     0.957750000000     0          
O        O      0.762400000000     0.987700000000     0.718600000000     0          
O        O      0.725300000000     0.970950000000     0.945600000000     0          
O        O      0.887666666667     0.969900000000     0.952650000000     0          
O        O      0.736400000000     0.597200000000     0.915750000000     0          
O        O      0.682166666667     0.578250000000     0.847550000000     0          
O        O      0.782533333333     0.999700000000     0.934600000000     0          
O        O      0.844833333333     0.516250000000     0.922850000000     0          
O        O      0.942800000000     0.749350000000     0.880250000000     0          
O        O      0.767533333333     0.585500000000     0.509700000000     0          
O        O      0.707366666667     0.515350000000     0.999550000000     0          


