data_zeolite

_audit_creation_method RASPA-1.0
_audit_creation_date 2021-6-7
_audit_author_name ''

_cell_length_a    10.002
_cell_length_b    10.002
_cell_length_c    34.141
_cell_angle_alpha 90
_cell_angle_beta  90
_cell_angle_gamma 90
_cell_volume      30739.2

_symmetry_cell_setting          tetragonal
_symmetry_space_group_name_Hall 'P 1'
_symmetry_space_group_name_H-M  'P 1'
_symmetry_Int_Tables_number     1

_symmetry_equiv_pos_as_xyz 'x,y,z'

loop_
_atom_site_label
_atom_site_type_symbol
_atom_site_fract_x
_atom_site_fract_y
_atom_site_fract_z
_atom_site_charge
T        Si     0.032833333333     0.234300000000     0.903200000000     0          
T        Si     0.015166666667     0.015166666667     0.456900000000     0          
T        Si     0.031533333333     0.031533333333     0.272300000000     0          
T        Si     0.036133333333     0.036133333333     0.745800000000     0          
T        Si     0.318466666667     0.318466666667     0.336100000000     0          
T        Si     0.048466666667     0.048466666667     0.065000000000     0          
T        Si     0.083333333333     0.083333333333     0.490400000000     0          
T        Si     0.265700000000     0.032833333333     0.403200000000     0          
T        Si     0.151500000000     0.015166666667     0.956900000000     0          
T        Si     0.135133333333     0.031533333333     0.772300000000     0          
T        Si     0.130533333333     0.036133333333     0.245800000000     0          
T        Si     0.181533333333     0.318466666667     0.836100000000     0          
T        Si     0.118200000000     0.048466666667     0.565000000000     0          
T        Si     0.083333333333     0.083333333333     0.990400000000     0          
T        Si     0.133833333333     0.265700000000     0.903200000000     0          
T        Si     0.151500000000     0.151500000000     0.456900000000     0          
T        Si     0.135133333333     0.135133333333     0.272300000000     0          
T        Si     0.130533333333     0.130533333333     0.745800000000     0          
T        Si     0.181533333333     0.181533333333     0.336100000000     0          
T        Si     0.118200000000     0.118200000000     0.065000000000     0          
T        Si     0.234300000000     0.133833333333     0.403200000000     0          
T        Si     0.015166666667     0.151500000000     0.956900000000     0          
T        Si     0.031533333333     0.135133333333     0.772300000000     0          
T        Si     0.036133333333     0.130533333333     0.245800000000     0          
T        Si     0.318466666667     0.181533333333     0.836100000000     0          
T        Si     0.048466666667     0.118200000000     0.565000000000     0          
T        Si     0.199500000000     0.099033333333     0.596800000000     0          
T        Si     0.181833333333     0.318166666667     0.043100000000     0          
T        Si     0.198200000000     0.301800000000     0.227700000000     0          
T        Si     0.202800000000     0.297200000000     0.754200000000     0          
T        Si     0.151800000000     0.014866666667     0.163900000000     0          
T        Si     0.215133333333     0.284866666667     0.435000000000     0          
T        Si     0.250000000000     0.250000000000     0.009600000000     0          
T        Si     0.067633333333     0.199500000000     0.096800000000     0          
T        Si     0.181833333333     0.181833333333     0.543100000000     0          
T        Si     0.198200000000     0.198200000000     0.727700000000     0          
T        Si     0.202800000000     0.202800000000     0.254200000000     0          
T        Si     0.151800000000     0.151800000000     0.663900000000     0          
T        Si     0.215133333333     0.215133333333     0.935000000000     0          
T        Si     0.250000000000     0.250000000000     0.509600000000     0          
T        Si     0.300500000000     0.067633333333     0.596800000000     0          
T        Si     0.318166666667     0.181833333333     0.043100000000     0          
T        Si     0.301800000000     0.198200000000     0.227700000000     0          
T        Si     0.297200000000     0.202800000000     0.754200000000     0          
T        Si     0.014866666667     0.151800000000     0.163900000000     0          
T        Si     0.284866666667     0.215133333333     0.435000000000     0          
T        Si     0.099033333333     0.300500000000     0.096800000000     0          
T        Si     0.318166666667     0.318166666667     0.543100000000     0          
T        Si     0.301800000000     0.301800000000     0.727700000000     0          
T        Si     0.297200000000     0.297200000000     0.254200000000     0          
T        Si     0.014866666667     0.014866666667     0.663900000000     0          
T        Si     0.284866666667     0.284866666667     0.935000000000     0          
T        Si     0.300500000000     0.099033333333     0.096800000000     0          
T        Si     0.067633333333     0.300500000000     0.596800000000     0          
T        Si     0.199500000000     0.067633333333     0.096800000000     0          
T        Si     0.099033333333     0.199500000000     0.596800000000     0          
T        Si     0.133833333333     0.234300000000     0.403200000000     0          
T        Si     0.265700000000     0.133833333333     0.903200000000     0          
T        Si     0.032833333333     0.265700000000     0.403200000000     0          
T        Si     0.234300000000     0.032833333333     0.903200000000     0          
T        Si     0.032833333333     0.567633333333     0.903200000000     0          
T        Si     0.015166666667     0.348500000000     0.456900000000     0          
T        Si     0.031533333333     0.364866666667     0.272300000000     0          
T        Si     0.036133333333     0.369466666667     0.745800000000     0          
T        Si     0.318466666667     0.651800000000     0.336100000000     0          
T        Si     0.048466666667     0.381800000000     0.065000000000     0          
T        Si     0.083333333333     0.416666666667     0.490400000000     0          
T        Si     0.265700000000     0.366166666667     0.403200000000     0          
T        Si     0.151500000000     0.348500000000     0.956900000000     0          
T        Si     0.135133333333     0.364866666667     0.772300000000     0          
T        Si     0.130533333333     0.369466666667     0.245800000000     0          
T        Si     0.181533333333     0.651800000000     0.836100000000     0          
T        Si     0.118200000000     0.381800000000     0.565000000000     0          
T        Si     0.083333333333     0.416666666667     0.990400000000     0          
T        Si     0.133833333333     0.599033333333     0.903200000000     0          
T        Si     0.151500000000     0.484833333333     0.456900000000     0          
T        Si     0.135133333333     0.468466666667     0.272300000000     0          
T        Si     0.130533333333     0.463866666667     0.745800000000     0          
T        Si     0.181533333333     0.514866666667     0.336100000000     0          
T        Si     0.118200000000     0.451533333333     0.065000000000     0          
T        Si     0.234300000000     0.467166666667     0.403200000000     0          
T        Si     0.015166666667     0.484833333333     0.956900000000     0          
T        Si     0.031533333333     0.468466666667     0.772300000000     0          
T        Si     0.036133333333     0.463866666667     0.245800000000     0          
T        Si     0.318466666667     0.514866666667     0.836100000000     0          
T        Si     0.048466666667     0.451533333333     0.565000000000     0          
T        Si     0.199500000000     0.432366666667     0.596800000000     0          
T        Si     0.181833333333     0.651500000000     0.043100000000     0          
T        Si     0.198200000000     0.635133333333     0.227700000000     0          
T        Si     0.202800000000     0.630533333333     0.754200000000     0          
T        Si     0.151800000000     0.348200000000     0.163900000000     0          
T        Si     0.215133333333     0.618200000000     0.435000000000     0          
T        Si     0.250000000000     0.583333333333     0.009600000000     0          
T        Si     0.067633333333     0.532833333333     0.096800000000     0          
T        Si     0.181833333333     0.515166666667     0.543100000000     0          
T        Si     0.198200000000     0.531533333333     0.727700000000     0          
T        Si     0.202800000000     0.536133333333     0.254200000000     0          
T        Si     0.151800000000     0.485133333333     0.663900000000     0          
T        Si     0.215133333333     0.548466666667     0.935000000000     0          
T        Si     0.250000000000     0.583333333333     0.509600000000     0          
T        Si     0.300500000000     0.400966666667     0.596800000000     0          
T        Si     0.318166666667     0.515166666667     0.043100000000     0          
T        Si     0.301800000000     0.531533333333     0.227700000000     0          
T        Si     0.297200000000     0.536133333333     0.754200000000     0          
T        Si     0.014866666667     0.485133333333     0.163900000000     0          
T        Si     0.284866666667     0.548466666667     0.435000000000     0          
T        Si     0.099033333333     0.633833333333     0.096800000000     0          
T        Si     0.318166666667     0.651500000000     0.543100000000     0          
T        Si     0.301800000000     0.635133333333     0.727700000000     0          
T        Si     0.297200000000     0.630533333333     0.254200000000     0          
T        Si     0.014866666667     0.348200000000     0.663900000000     0          
T        Si     0.284866666667     0.618200000000     0.935000000000     0          
T        Si     0.300500000000     0.432366666667     0.096800000000     0          
T        Si     0.067633333333     0.633833333333     0.596800000000     0          
T        Si     0.199500000000     0.400966666667     0.096800000000     0          
T        Si     0.099033333333     0.532833333333     0.596800000000     0          
T        Si     0.133833333333     0.567633333333     0.403200000000     0          
T        Si     0.265700000000     0.467166666667     0.903200000000     0          
T        Si     0.032833333333     0.599033333333     0.403200000000     0          
T        Si     0.234300000000     0.366166666667     0.903200000000     0          
T        Si     0.032833333333     0.900966666667     0.903200000000     0          
T        Si     0.015166666667     0.681833333333     0.456900000000     0          
T        Si     0.031533333333     0.698200000000     0.272300000000     0          
T        Si     0.036133333333     0.702800000000     0.745800000000     0          
T        Si     0.318466666667     0.985133333333     0.336100000000     0          
T        Si     0.048466666667     0.715133333333     0.065000000000     0          
T        Si     0.083333333333     0.750000000000     0.490400000000     0          
T        Si     0.265700000000     0.699500000000     0.403200000000     0          
T        Si     0.151500000000     0.681833333333     0.956900000000     0          
T        Si     0.135133333333     0.698200000000     0.772300000000     0          
T        Si     0.130533333333     0.702800000000     0.245800000000     0          
T        Si     0.181533333333     0.985133333333     0.836100000000     0          
T        Si     0.118200000000     0.715133333333     0.565000000000     0          
T        Si     0.083333333333     0.750000000000     0.990400000000     0          
T        Si     0.133833333333     0.932366666667     0.903200000000     0          
T        Si     0.151500000000     0.818166666667     0.456900000000     0          
T        Si     0.135133333333     0.801800000000     0.272300000000     0          
T        Si     0.130533333333     0.797200000000     0.745800000000     0          
T        Si     0.181533333333     0.848200000000     0.336100000000     0          
T        Si     0.118200000000     0.784866666667     0.065000000000     0          
T        Si     0.234300000000     0.800500000000     0.403200000000     0          
T        Si     0.015166666667     0.818166666667     0.956900000000     0          
T        Si     0.031533333333     0.801800000000     0.772300000000     0          
T        Si     0.036133333333     0.797200000000     0.245800000000     0          
T        Si     0.318466666667     0.848200000000     0.836100000000     0          
T        Si     0.048466666667     0.784866666667     0.565000000000     0          
T        Si     0.199500000000     0.765700000000     0.596800000000     0          
T        Si     0.181833333333     0.984833333333     0.043100000000     0          
T        Si     0.198200000000     0.968466666667     0.227700000000     0          
T        Si     0.202800000000     0.963866666667     0.754200000000     0          
T        Si     0.151800000000     0.681533333333     0.163900000000     0          
T        Si     0.215133333333     0.951533333333     0.435000000000     0          
T        Si     0.250000000000     0.916666666667     0.009600000000     0          
T        Si     0.067633333333     0.866166666667     0.096800000000     0          
T        Si     0.181833333333     0.848500000000     0.543100000000     0          
T        Si     0.198200000000     0.864866666667     0.727700000000     0          
T        Si     0.202800000000     0.869466666667     0.254200000000     0          
T        Si     0.151800000000     0.818466666667     0.663900000000     0          
T        Si     0.215133333333     0.881800000000     0.935000000000     0          
T        Si     0.250000000000     0.916666666667     0.509600000000     0          
T        Si     0.300500000000     0.734300000000     0.596800000000     0          
T        Si     0.318166666667     0.848500000000     0.043100000000     0          
T        Si     0.301800000000     0.864866666667     0.227700000000     0          
T        Si     0.297200000000     0.869466666667     0.754200000000     0          
T        Si     0.014866666667     0.818466666667     0.163900000000     0          
T        Si     0.284866666667     0.881800000000     0.435000000000     0          
T        Si     0.099033333333     0.967166666667     0.096800000000     0          
T        Si     0.318166666667     0.984833333333     0.543100000000     0          
T        Si     0.301800000000     0.968466666667     0.727700000000     0          
T        Si     0.297200000000     0.963866666667     0.254200000000     0          
T        Si     0.014866666667     0.681533333333     0.663900000000     0          
T        Si     0.284866666667     0.951533333333     0.935000000000     0          
T        Si     0.300500000000     0.765700000000     0.096800000000     0          
T        Si     0.067633333333     0.967166666667     0.596800000000     0          
T        Si     0.199500000000     0.734300000000     0.096800000000     0          
T        Si     0.099033333333     0.866166666667     0.596800000000     0          
T        Si     0.133833333333     0.900966666667     0.403200000000     0          
T        Si     0.265700000000     0.800500000000     0.903200000000     0          
T        Si     0.032833333333     0.932366666667     0.403200000000     0          
T        Si     0.234300000000     0.699500000000     0.903200000000     0          
T        Si     0.366166666667     0.234300000000     0.903200000000     0          
T        Si     0.348500000000     0.015166666667     0.456900000000     0          
T        Si     0.364866666667     0.031533333333     0.272300000000     0          
T        Si     0.369466666667     0.036133333333     0.745800000000     0          
T        Si     0.651800000000     0.318466666667     0.336100000000     0          
T        Si     0.381800000000     0.048466666667     0.065000000000     0          
T        Si     0.416666666667     0.083333333333     0.490400000000     0          
T        Si     0.599033333333     0.032833333333     0.403200000000     0          
T        Si     0.484833333333     0.015166666667     0.956900000000     0          
T        Si     0.468466666667     0.031533333333     0.772300000000     0          
T        Si     0.463866666667     0.036133333333     0.245800000000     0          
T        Si     0.514866666667     0.318466666667     0.836100000000     0          
T        Si     0.451533333333     0.048466666667     0.565000000000     0          
T        Si     0.416666666667     0.083333333333     0.990400000000     0          
T        Si     0.467166666667     0.265700000000     0.903200000000     0          
T        Si     0.484833333333     0.151500000000     0.456900000000     0          
T        Si     0.468466666667     0.135133333333     0.272300000000     0          
T        Si     0.463866666667     0.130533333333     0.745800000000     0          
T        Si     0.514866666667     0.181533333333     0.336100000000     0          
T        Si     0.451533333333     0.118200000000     0.065000000000     0          
T        Si     0.567633333333     0.133833333333     0.403200000000     0          
T        Si     0.348500000000     0.151500000000     0.956900000000     0          
T        Si     0.364866666667     0.135133333333     0.772300000000     0          
T        Si     0.369466666667     0.130533333333     0.245800000000     0          
T        Si     0.651800000000     0.181533333333     0.836100000000     0          
T        Si     0.381800000000     0.118200000000     0.565000000000     0          
T        Si     0.532833333333     0.099033333333     0.596800000000     0          
T        Si     0.515166666667     0.318166666667     0.043100000000     0          
T        Si     0.531533333333     0.301800000000     0.227700000000     0          
T        Si     0.536133333333     0.297200000000     0.754200000000     0          
T        Si     0.485133333333     0.014866666667     0.163900000000     0          
T        Si     0.548466666667     0.284866666667     0.435000000000     0          
T        Si     0.583333333333     0.250000000000     0.009600000000     0          
T        Si     0.400966666667     0.199500000000     0.096800000000     0          
T        Si     0.515166666667     0.181833333333     0.543100000000     0          
T        Si     0.531533333333     0.198200000000     0.727700000000     0          
T        Si     0.536133333333     0.202800000000     0.254200000000     0          
T        Si     0.485133333333     0.151800000000     0.663900000000     0          
T        Si     0.548466666667     0.215133333333     0.935000000000     0          
T        Si     0.583333333333     0.250000000000     0.509600000000     0          
T        Si     0.633833333333     0.067633333333     0.596800000000     0          
T        Si     0.651500000000     0.181833333333     0.043100000000     0          
T        Si     0.635133333333     0.198200000000     0.227700000000     0          
T        Si     0.630533333333     0.202800000000     0.754200000000     0          
T        Si     0.348200000000     0.151800000000     0.163900000000     0          
T        Si     0.618200000000     0.215133333333     0.435000000000     0          
T        Si     0.432366666667     0.300500000000     0.096800000000     0          
T        Si     0.651500000000     0.318166666667     0.543100000000     0          
T        Si     0.635133333333     0.301800000000     0.727700000000     0          
T        Si     0.630533333333     0.297200000000     0.254200000000     0          
T        Si     0.348200000000     0.014866666667     0.663900000000     0          
T        Si     0.618200000000     0.284866666667     0.935000000000     0          
T        Si     0.633833333333     0.099033333333     0.096800000000     0          
T        Si     0.400966666667     0.300500000000     0.596800000000     0          
T        Si     0.532833333333     0.067633333333     0.096800000000     0          
T        Si     0.432366666667     0.199500000000     0.596800000000     0          
T        Si     0.467166666667     0.234300000000     0.403200000000     0          
T        Si     0.599033333333     0.133833333333     0.903200000000     0          
T        Si     0.366166666667     0.265700000000     0.403200000000     0          
T        Si     0.567633333333     0.032833333333     0.903200000000     0          
T        Si     0.366166666667     0.567633333333     0.903200000000     0          
T        Si     0.348500000000     0.348500000000     0.456900000000     0          
T        Si     0.364866666667     0.364866666667     0.272300000000     0          
T        Si     0.369466666667     0.369466666667     0.745800000000     0          
T        Si     0.651800000000     0.651800000000     0.336100000000     0          
T        Si     0.381800000000     0.381800000000     0.065000000000     0          
T        Si     0.416666666667     0.416666666667     0.490400000000     0          
T        Si     0.599033333333     0.366166666667     0.403200000000     0          
T        Si     0.484833333333     0.348500000000     0.956900000000     0          
T        Si     0.468466666667     0.364866666667     0.772300000000     0          
T        Si     0.463866666667     0.369466666667     0.245800000000     0          
T        Si     0.514866666667     0.651800000000     0.836100000000     0          
T        Si     0.451533333333     0.381800000000     0.565000000000     0          
T        Si     0.416666666667     0.416666666667     0.990400000000     0          
T        Si     0.467166666667     0.599033333333     0.903200000000     0          
T        Si     0.484833333333     0.484833333333     0.456900000000     0          
T        Si     0.468466666667     0.468466666667     0.272300000000     0          
T        Si     0.463866666667     0.463866666667     0.745800000000     0          
T        Si     0.514866666667     0.514866666667     0.336100000000     0          
T        Si     0.451533333333     0.451533333333     0.065000000000     0          
T        Si     0.567633333333     0.467166666667     0.403200000000     0          
T        Si     0.348500000000     0.484833333333     0.956900000000     0          
T        Si     0.364866666667     0.468466666667     0.772300000000     0          
T        Si     0.369466666667     0.463866666667     0.245800000000     0          
T        Si     0.651800000000     0.514866666667     0.836100000000     0          
T        Si     0.381800000000     0.451533333333     0.565000000000     0          
T        Si     0.532833333333     0.432366666667     0.596800000000     0          
T        Si     0.515166666667     0.651500000000     0.043100000000     0          
T        Si     0.531533333333     0.635133333333     0.227700000000     0          
T        Si     0.536133333333     0.630533333333     0.754200000000     0          
T        Si     0.485133333333     0.348200000000     0.163900000000     0          
T        Si     0.548466666667     0.618200000000     0.435000000000     0          
T        Si     0.583333333333     0.583333333333     0.009600000000     0          
T        Si     0.400966666667     0.532833333333     0.096800000000     0          
T        Si     0.515166666667     0.515166666667     0.543100000000     0          
T        Si     0.531533333333     0.531533333333     0.727700000000     0          
T        Si     0.536133333333     0.536133333333     0.254200000000     0          
T        Si     0.485133333333     0.485133333333     0.663900000000     0          
T        Si     0.548466666667     0.548466666667     0.935000000000     0          
T        Si     0.583333333333     0.583333333333     0.509600000000     0          
T        Si     0.633833333333     0.400966666667     0.596800000000     0          
T        Si     0.651500000000     0.515166666667     0.043100000000     0          
T        Si     0.635133333333     0.531533333333     0.227700000000     0          
T        Si     0.630533333333     0.536133333333     0.754200000000     0          
T        Si     0.348200000000     0.485133333333     0.163900000000     0          
T        Si     0.618200000000     0.548466666667     0.435000000000     0          
T        Si     0.432366666667     0.633833333333     0.096800000000     0          
T        Si     0.651500000000     0.651500000000     0.543100000000     0          
T        Si     0.635133333333     0.635133333333     0.727700000000     0          
T        Si     0.630533333333     0.630533333333     0.254200000000     0          
T        Si     0.348200000000     0.348200000000     0.663900000000     0          
T        Si     0.618200000000     0.618200000000     0.935000000000     0          
T        Si     0.633833333333     0.432366666667     0.096800000000     0          
T        Si     0.400966666667     0.633833333333     0.596800000000     0          
T        Si     0.532833333333     0.400966666667     0.096800000000     0          
T        Si     0.432366666667     0.532833333333     0.596800000000     0          
T        Si     0.467166666667     0.567633333333     0.403200000000     0          
T        Si     0.599033333333     0.467166666667     0.903200000000     0          
T        Si     0.366166666667     0.599033333333     0.403200000000     0          
T        Si     0.567633333333     0.366166666667     0.903200000000     0          
T        Si     0.366166666667     0.900966666667     0.903200000000     0          
T        Si     0.348500000000     0.681833333333     0.456900000000     0          
T        Si     0.364866666667     0.698200000000     0.272300000000     0          
T        Si     0.369466666667     0.702800000000     0.745800000000     0          
T        Si     0.651800000000     0.985133333333     0.336100000000     0          
T        Si     0.381800000000     0.715133333333     0.065000000000     0          
T        Si     0.416666666667     0.750000000000     0.490400000000     0          
T        Si     0.599033333333     0.699500000000     0.403200000000     0          
T        Si     0.484833333333     0.681833333333     0.956900000000     0          
T        Si     0.468466666667     0.698200000000     0.772300000000     0          
T        Si     0.463866666667     0.702800000000     0.245800000000     0          
T        Si     0.514866666667     0.985133333333     0.836100000000     0          
T        Si     0.451533333333     0.715133333333     0.565000000000     0          
T        Si     0.416666666667     0.750000000000     0.990400000000     0          
T        Si     0.467166666667     0.932366666667     0.903200000000     0          
T        Si     0.484833333333     0.818166666667     0.456900000000     0          
T        Si     0.468466666667     0.801800000000     0.272300000000     0          
T        Si     0.463866666667     0.797200000000     0.745800000000     0          
T        Si     0.514866666667     0.848200000000     0.336100000000     0          
T        Si     0.451533333333     0.784866666667     0.065000000000     0          
T        Si     0.567633333333     0.800500000000     0.403200000000     0          
T        Si     0.348500000000     0.818166666667     0.956900000000     0          
T        Si     0.364866666667     0.801800000000     0.772300000000     0          
T        Si     0.369466666667     0.797200000000     0.245800000000     0          
T        Si     0.651800000000     0.848200000000     0.836100000000     0          
T        Si     0.381800000000     0.784866666667     0.565000000000     0          
T        Si     0.532833333333     0.765700000000     0.596800000000     0          
T        Si     0.515166666667     0.984833333333     0.043100000000     0          
T        Si     0.531533333333     0.968466666667     0.227700000000     0          
T        Si     0.536133333333     0.963866666667     0.754200000000     0          
T        Si     0.485133333333     0.681533333333     0.163900000000     0          
T        Si     0.548466666667     0.951533333333     0.435000000000     0          
T        Si     0.583333333333     0.916666666667     0.009600000000     0          
T        Si     0.400966666667     0.866166666667     0.096800000000     0          
T        Si     0.515166666667     0.848500000000     0.543100000000     0          
T        Si     0.531533333333     0.864866666667     0.727700000000     0          
T        Si     0.536133333333     0.869466666667     0.254200000000     0          
T        Si     0.485133333333     0.818466666667     0.663900000000     0          
T        Si     0.548466666667     0.881800000000     0.935000000000     0          
T        Si     0.583333333333     0.916666666667     0.509600000000     0          
T        Si     0.633833333333     0.734300000000     0.596800000000     0          
T        Si     0.651500000000     0.848500000000     0.043100000000     0          
T        Si     0.635133333333     0.864866666667     0.227700000000     0          
T        Si     0.630533333333     0.869466666667     0.754200000000     0          
T        Si     0.348200000000     0.818466666667     0.163900000000     0          
T        Si     0.618200000000     0.881800000000     0.435000000000     0          
T        Si     0.432366666667     0.967166666667     0.096800000000     0          
T        Si     0.651500000000     0.984833333333     0.543100000000     0          
T        Si     0.635133333333     0.968466666667     0.727700000000     0          
T        Si     0.630533333333     0.963866666667     0.254200000000     0          
T        Si     0.348200000000     0.681533333333     0.663900000000     0          
T        Si     0.618200000000     0.951533333333     0.935000000000     0          
T        Si     0.633833333333     0.765700000000     0.096800000000     0          
T        Si     0.400966666667     0.967166666667     0.596800000000     0          
T        Si     0.532833333333     0.734300000000     0.096800000000     0          
T        Si     0.432366666667     0.866166666667     0.596800000000     0          
T        Si     0.467166666667     0.900966666667     0.403200000000     0          
T        Si     0.599033333333     0.800500000000     0.903200000000     0          
T        Si     0.366166666667     0.932366666667     0.403200000000     0          
T        Si     0.567633333333     0.699500000000     0.903200000000     0          
T        Si     0.699500000000     0.234300000000     0.903200000000     0          
T        Si     0.681833333333     0.015166666667     0.456900000000     0          
T        Si     0.698200000000     0.031533333333     0.272300000000     0          
T        Si     0.702800000000     0.036133333333     0.745800000000     0          
T        Si     0.985133333333     0.318466666667     0.336100000000     0          
T        Si     0.715133333333     0.048466666667     0.065000000000     0          
T        Si     0.750000000000     0.083333333333     0.490400000000     0          
T        Si     0.932366666667     0.032833333333     0.403200000000     0          
T        Si     0.818166666667     0.015166666667     0.956900000000     0          
T        Si     0.801800000000     0.031533333333     0.772300000000     0          
T        Si     0.797200000000     0.036133333333     0.245800000000     0          
T        Si     0.848200000000     0.318466666667     0.836100000000     0          
T        Si     0.784866666667     0.048466666667     0.565000000000     0          
T        Si     0.750000000000     0.083333333333     0.990400000000     0          
T        Si     0.800500000000     0.265700000000     0.903200000000     0          
T        Si     0.818166666667     0.151500000000     0.456900000000     0          
T        Si     0.801800000000     0.135133333333     0.272300000000     0          
T        Si     0.797200000000     0.130533333333     0.745800000000     0          
T        Si     0.848200000000     0.181533333333     0.336100000000     0          
T        Si     0.784866666667     0.118200000000     0.065000000000     0          
T        Si     0.900966666667     0.133833333333     0.403200000000     0          
T        Si     0.681833333333     0.151500000000     0.956900000000     0          
T        Si     0.698200000000     0.135133333333     0.772300000000     0          
T        Si     0.702800000000     0.130533333333     0.245800000000     0          
T        Si     0.985133333333     0.181533333333     0.836100000000     0          
T        Si     0.715133333333     0.118200000000     0.565000000000     0          
T        Si     0.866166666667     0.099033333333     0.596800000000     0          
T        Si     0.848500000000     0.318166666667     0.043100000000     0          
T        Si     0.864866666667     0.301800000000     0.227700000000     0          
T        Si     0.869466666667     0.297200000000     0.754200000000     0          
T        Si     0.818466666667     0.014866666667     0.163900000000     0          
T        Si     0.881800000000     0.284866666667     0.435000000000     0          
T        Si     0.916666666667     0.250000000000     0.009600000000     0          
T        Si     0.734300000000     0.199500000000     0.096800000000     0          
T        Si     0.848500000000     0.181833333333     0.543100000000     0          
T        Si     0.864866666667     0.198200000000     0.727700000000     0          
T        Si     0.869466666667     0.202800000000     0.254200000000     0          
T        Si     0.818466666667     0.151800000000     0.663900000000     0          
T        Si     0.881800000000     0.215133333333     0.935000000000     0          
T        Si     0.916666666667     0.250000000000     0.509600000000     0          
T        Si     0.967166666667     0.067633333333     0.596800000000     0          
T        Si     0.984833333333     0.181833333333     0.043100000000     0          
T        Si     0.968466666667     0.198200000000     0.227700000000     0          
T        Si     0.963866666667     0.202800000000     0.754200000000     0          
T        Si     0.681533333333     0.151800000000     0.163900000000     0          
T        Si     0.951533333333     0.215133333333     0.435000000000     0          
T        Si     0.765700000000     0.300500000000     0.096800000000     0          
T        Si     0.984833333333     0.318166666667     0.543100000000     0          
T        Si     0.968466666667     0.301800000000     0.727700000000     0          
T        Si     0.963866666667     0.297200000000     0.254200000000     0          
T        Si     0.681533333333     0.014866666667     0.663900000000     0          
T        Si     0.951533333333     0.284866666667     0.935000000000     0          
T        Si     0.967166666667     0.099033333333     0.096800000000     0          
T        Si     0.734300000000     0.300500000000     0.596800000000     0          
T        Si     0.866166666667     0.067633333333     0.096800000000     0          
T        Si     0.765700000000     0.199500000000     0.596800000000     0          
T        Si     0.800500000000     0.234300000000     0.403200000000     0          
T        Si     0.932366666667     0.133833333333     0.903200000000     0          
T        Si     0.699500000000     0.265700000000     0.403200000000     0          
T        Si     0.900966666667     0.032833333333     0.903200000000     0          
T        Si     0.699500000000     0.567633333333     0.903200000000     0          
T        Si     0.681833333333     0.348500000000     0.456900000000     0          
T        Si     0.698200000000     0.364866666667     0.272300000000     0          
T        Si     0.702800000000     0.369466666667     0.745800000000     0          
T        Si     0.985133333333     0.651800000000     0.336100000000     0          
T        Si     0.715133333333     0.381800000000     0.065000000000     0          
T        Si     0.750000000000     0.416666666667     0.490400000000     0          
T        Si     0.932366666667     0.366166666667     0.403200000000     0          
T        Si     0.818166666667     0.348500000000     0.956900000000     0          
T        Si     0.801800000000     0.364866666667     0.772300000000     0          
T        Si     0.797200000000     0.369466666667     0.245800000000     0          
T        Si     0.848200000000     0.651800000000     0.836100000000     0          
T        Si     0.784866666667     0.381800000000     0.565000000000     0          
T        Si     0.750000000000     0.416666666667     0.990400000000     0          
T        Si     0.800500000000     0.599033333333     0.903200000000     0          
T        Si     0.818166666667     0.484833333333     0.456900000000     0          
T        Si     0.801800000000     0.468466666667     0.272300000000     0          
T        Si     0.797200000000     0.463866666667     0.745800000000     0          
T        Si     0.848200000000     0.514866666667     0.336100000000     0          
T        Si     0.784866666667     0.451533333333     0.065000000000     0          
T        Si     0.900966666667     0.467166666667     0.403200000000     0          
T        Si     0.681833333333     0.484833333333     0.956900000000     0          
T        Si     0.698200000000     0.468466666667     0.772300000000     0          
T        Si     0.702800000000     0.463866666667     0.245800000000     0          
T        Si     0.985133333333     0.514866666667     0.836100000000     0          
T        Si     0.715133333333     0.451533333333     0.565000000000     0          
T        Si     0.866166666667     0.432366666667     0.596800000000     0          
T        Si     0.848500000000     0.651500000000     0.043100000000     0          
T        Si     0.864866666667     0.635133333333     0.227700000000     0          
T        Si     0.869466666667     0.630533333333     0.754200000000     0          
T        Si     0.818466666667     0.348200000000     0.163900000000     0          
T        Si     0.881800000000     0.618200000000     0.435000000000     0          
T        Si     0.916666666667     0.583333333333     0.009600000000     0          
T        Si     0.734300000000     0.532833333333     0.096800000000     0          
T        Si     0.848500000000     0.515166666667     0.543100000000     0          
T        Si     0.864866666667     0.531533333333     0.727700000000     0          
T        Si     0.869466666667     0.536133333333     0.254200000000     0          
T        Si     0.818466666667     0.485133333333     0.663900000000     0          
T        Si     0.881800000000     0.548466666667     0.935000000000     0          
T        Si     0.916666666667     0.583333333333     0.509600000000     0          
T        Si     0.967166666667     0.400966666667     0.596800000000     0          
T        Si     0.984833333333     0.515166666667     0.043100000000     0          
T        Si     0.968466666667     0.531533333333     0.227700000000     0          
T        Si     0.963866666667     0.536133333333     0.754200000000     0          
T        Si     0.681533333333     0.485133333333     0.163900000000     0          
T        Si     0.951533333333     0.548466666667     0.435000000000     0          
T        Si     0.765700000000     0.633833333333     0.096800000000     0          
T        Si     0.984833333333     0.651500000000     0.543100000000     0          
T        Si     0.968466666667     0.635133333333     0.727700000000     0          
T        Si     0.963866666667     0.630533333333     0.254200000000     0          
T        Si     0.681533333333     0.348200000000     0.663900000000     0          
T        Si     0.951533333333     0.618200000000     0.935000000000     0          
T        Si     0.967166666667     0.432366666667     0.096800000000     0          
T        Si     0.734300000000     0.633833333333     0.596800000000     0          
T        Si     0.866166666667     0.400966666667     0.096800000000     0          
T        Si     0.765700000000     0.532833333333     0.596800000000     0          
T        Si     0.800500000000     0.567633333333     0.403200000000     0          
T        Si     0.932366666667     0.467166666667     0.903200000000     0          
T        Si     0.699500000000     0.599033333333     0.403200000000     0          
T        Si     0.900966666667     0.366166666667     0.903200000000     0          
T        Si     0.699500000000     0.900966666667     0.903200000000     0          
T        Si     0.681833333333     0.681833333333     0.456900000000     0          
T        Si     0.698200000000     0.698200000000     0.272300000000     0          
T        Si     0.702800000000     0.702800000000     0.745800000000     0          
T        Si     0.985133333333     0.985133333333     0.336100000000     0          
T        Si     0.715133333333     0.715133333333     0.065000000000     0          
T        Si     0.750000000000     0.750000000000     0.490400000000     0          
T        Si     0.932366666667     0.699500000000     0.403200000000     0          
T        Si     0.818166666667     0.681833333333     0.956900000000     0          
T        Si     0.801800000000     0.698200000000     0.772300000000     0          
T        Si     0.797200000000     0.702800000000     0.245800000000     0          
T        Si     0.848200000000     0.985133333333     0.836100000000     0          
T        Si     0.784866666667     0.715133333333     0.565000000000     0          
T        Si     0.750000000000     0.750000000000     0.990400000000     0          
T        Si     0.800500000000     0.932366666667     0.903200000000     0          
T        Si     0.818166666667     0.818166666667     0.456900000000     0          
T        Si     0.801800000000     0.801800000000     0.272300000000     0          
T        Si     0.797200000000     0.797200000000     0.745800000000     0          
T        Si     0.848200000000     0.848200000000     0.336100000000     0          
T        Si     0.784866666667     0.784866666667     0.065000000000     0          
T        Si     0.900966666667     0.800500000000     0.403200000000     0          
T        Si     0.681833333333     0.818166666667     0.956900000000     0          
T        Si     0.698200000000     0.801800000000     0.772300000000     0          
T        Si     0.702800000000     0.797200000000     0.245800000000     0          
T        Si     0.985133333333     0.848200000000     0.836100000000     0          
T        Si     0.715133333333     0.784866666667     0.565000000000     0          
T        Si     0.866166666667     0.765700000000     0.596800000000     0          
T        Si     0.848500000000     0.984833333333     0.043100000000     0          
T        Si     0.864866666667     0.968466666667     0.227700000000     0          
T        Si     0.869466666667     0.963866666667     0.754200000000     0          
T        Si     0.818466666667     0.681533333333     0.163900000000     0          
T        Si     0.881800000000     0.951533333333     0.435000000000     0          
T        Si     0.916666666667     0.916666666667     0.009600000000     0          
T        Si     0.734300000000     0.866166666667     0.096800000000     0          
T        Si     0.848500000000     0.848500000000     0.543100000000     0          
T        Si     0.864866666667     0.864866666667     0.727700000000     0          
T        Si     0.869466666667     0.869466666667     0.254200000000     0          
T        Si     0.818466666667     0.818466666667     0.663900000000     0          
T        Si     0.881800000000     0.881800000000     0.935000000000     0          
T        Si     0.916666666667     0.916666666667     0.509600000000     0          
T        Si     0.967166666667     0.734300000000     0.596800000000     0          
T        Si     0.984833333333     0.848500000000     0.043100000000     0          
T        Si     0.968466666667     0.864866666667     0.227700000000     0          
T        Si     0.963866666667     0.869466666667     0.754200000000     0          
T        Si     0.681533333333     0.818466666667     0.163900000000     0          
T        Si     0.951533333333     0.881800000000     0.435000000000     0          
T        Si     0.765700000000     0.967166666667     0.096800000000     0          
T        Si     0.984833333333     0.984833333333     0.543100000000     0          
T        Si     0.968466666667     0.968466666667     0.727700000000     0          
T        Si     0.963866666667     0.963866666667     0.254200000000     0          
T        Si     0.681533333333     0.681533333333     0.663900000000     0          
T        Si     0.951533333333     0.951533333333     0.935000000000     0          
T        Si     0.967166666667     0.765700000000     0.096800000000     0          
T        Si     0.734300000000     0.967166666667     0.596800000000     0          
T        Si     0.866166666667     0.734300000000     0.096800000000     0          
T        Si     0.765700000000     0.866166666667     0.596800000000     0          
T        Si     0.800500000000     0.900966666667     0.403200000000     0          
T        Si     0.932366666667     0.800500000000     0.903200000000     0          
T        Si     0.699500000000     0.932366666667     0.403200000000     0          
T        Si     0.900966666667     0.699500000000     0.903200000000     0          
O        O      0.001500000000     0.272766666667     0.921200000000     0          
O        O      0.011500000000     0.217166666667     0.862600000000     0          
O        O      0.035200000000     0.193400000000     0.933600000000     0          
O        O      0.083333333333     0.250000000000     0.895400000000     0          
O        O      0.052833333333     0.052833333333     0.462300000000     0          
O        O      0.000000000000     0.000000000000     0.500000000000     0          
O        O      0.001000000000     0.001000000000     0.244200000000     0          
O        O      0.021333333333     0.083333333333     0.264000000000     0          
O        O      0.019933333333     0.019933333333     0.317200000000     0          
O        O      0.040400000000     0.040400000000     0.698900000000     0          
O        O      0.052466666667     0.052466666667     0.018000000000     0          
O        O      0.083333333333     0.083333333333     0.083900000000     0          
O        O      0.227233333333     0.001500000000     0.421200000000     0          
O        O      0.282833333333     0.011500000000     0.362600000000     0          
O        O      0.306600000000     0.035200000000     0.433600000000     0          
O        O      0.250000000000     0.083333333333     0.395400000000     0          
O        O      0.113833333333     0.052833333333     0.962300000000     0          
O        O      0.166666666667     0.000000000000     0.000000000000     0          
O        O      0.165666666667     0.001000000000     0.744200000000     0          
O        O      0.083333333333     0.021333333333     0.764000000000     0          
O        O      0.146733333333     0.019933333333     0.817200000000     0          
O        O      0.126266666667     0.040400000000     0.198900000000     0          
O        O      0.114200000000     0.052466666667     0.518000000000     0          
O        O      0.083333333333     0.083333333333     0.583900000000     0          
O        O      0.165166666667     0.227233333333     0.921200000000     0          
O        O      0.155166666667     0.282833333333     0.862600000000     0          
O        O      0.131466666667     0.306600000000     0.933600000000     0          
O        O      0.113833333333     0.113833333333     0.462300000000     0          
O        O      0.166666666667     0.166666666667     0.500000000000     0          
O        O      0.165666666667     0.165666666667     0.244200000000     0          
O        O      0.145333333333     0.083333333333     0.264000000000     0          
O        O      0.146733333333     0.146733333333     0.317200000000     0          
O        O      0.126266666667     0.126266666667     0.698900000000     0          
O        O      0.114200000000     0.114200000000     0.018000000000     0          
O        O      0.272766666667     0.165166666667     0.421200000000     0          
O        O      0.217166666667     0.155166666667     0.362600000000     0          
O        O      0.193400000000     0.131466666667     0.433600000000     0          
O        O      0.052833333333     0.113833333333     0.962300000000     0          
O        O      0.000000000000     0.166666666667     0.000000000000     0          
O        O      0.001000000000     0.165666666667     0.744200000000     0          
O        O      0.083333333333     0.145333333333     0.764000000000     0          
O        O      0.019933333333     0.146733333333     0.817200000000     0          
O        O      0.040400000000     0.126266666667     0.198900000000     0          
O        O      0.052466666667     0.114200000000     0.518000000000     0          
O        O      0.168166666667     0.060566666667     0.578800000000     0          
O        O      0.178166666667     0.116166666667     0.637400000000     0          
O        O      0.201866666667     0.139933333333     0.566400000000     0          
O        O      0.250000000000     0.083333333333     0.604600000000     0          
O        O      0.219500000000     0.280500000000     0.037700000000     0          
O        O      0.167666666667     0.332333333333     0.255800000000     0          
O        O      0.188000000000     0.250000000000     0.236000000000     0          
O        O      0.186600000000     0.313400000000     0.182800000000     0          
O        O      0.207066666667     0.292933333333     0.801100000000     0          
O        O      0.219133333333     0.280866666667     0.482000000000     0          
O        O      0.250000000000     0.250000000000     0.416100000000     0          
O        O      0.106100000000     0.168166666667     0.078800000000     0          
O        O      0.050500000000     0.178166666667     0.137400000000     0          
O        O      0.026733333333     0.201866666667     0.066400000000     0          
O        O      0.083333333333     0.250000000000     0.104600000000     0          
O        O      0.219500000000     0.219500000000     0.537700000000     0          
O        O      0.167666666667     0.167666666667     0.755800000000     0          
O        O      0.250000000000     0.188000000000     0.736000000000     0          
O        O      0.186600000000     0.186600000000     0.682800000000     0          
O        O      0.207066666667     0.207066666667     0.301100000000     0          
O        O      0.219133333333     0.219133333333     0.982000000000     0          
O        O      0.250000000000     0.250000000000     0.916100000000     0          
O        O      0.331833333333     0.106100000000     0.578800000000     0          
O        O      0.321833333333     0.050500000000     0.637400000000     0          
O        O      0.298133333333     0.026733333333     0.566400000000     0          
O        O      0.280500000000     0.219500000000     0.037700000000     0          
O        O      0.332333333333     0.167666666667     0.255800000000     0          
O        O      0.312000000000     0.250000000000     0.236000000000     0          
O        O      0.313400000000     0.186600000000     0.182800000000     0          
O        O      0.292933333333     0.207066666667     0.801100000000     0          
O        O      0.280866666667     0.219133333333     0.482000000000     0          
O        O      0.060566666667     0.331833333333     0.078800000000     0          
O        O      0.116166666667     0.321833333333     0.137400000000     0          
O        O      0.139933333333     0.298133333333     0.066400000000     0          
O        O      0.280500000000     0.280500000000     0.537700000000     0          
O        O      0.332333333333     0.332333333333     0.755800000000     0          
O        O      0.250000000000     0.312000000000     0.736000000000     0          
O        O      0.313400000000     0.313400000000     0.682800000000     0          
O        O      0.292933333333     0.292933333333     0.301100000000     0          
O        O      0.280866666667     0.280866666667     0.982000000000     0          
O        O      0.331833333333     0.060566666667     0.078800000000     0          
O        O      0.321833333333     0.116166666667     0.137400000000     0          
O        O      0.298133333333     0.139933333333     0.066400000000     0          
O        O      0.250000000000     0.083333333333     0.104600000000     0          
O        O      0.312000000000     0.250000000000     0.736000000000     0          
O        O      0.106100000000     0.331833333333     0.578800000000     0          
O        O      0.050500000000     0.321833333333     0.637400000000     0          
O        O      0.026733333333     0.298133333333     0.566400000000     0          
O        O      0.083333333333     0.250000000000     0.604600000000     0          
O        O      0.250000000000     0.312000000000     0.236000000000     0          
O        O      0.168166666667     0.106100000000     0.078800000000     0          
O        O      0.178166666667     0.050500000000     0.137400000000     0          
O        O      0.201866666667     0.026733333333     0.066400000000     0          
O        O      0.188000000000     0.250000000000     0.736000000000     0          
O        O      0.060566666667     0.168166666667     0.578800000000     0          
O        O      0.116166666667     0.178166666667     0.637400000000     0          
O        O      0.139933333333     0.201866666667     0.566400000000     0          
O        O      0.250000000000     0.188000000000     0.236000000000     0          
O        O      0.165166666667     0.272766666667     0.421200000000     0          
O        O      0.155166666667     0.217166666667     0.362600000000     0          
O        O      0.131466666667     0.193400000000     0.433600000000     0          
O        O      0.083333333333     0.250000000000     0.395400000000     0          
O        O      0.145333333333     0.083333333333     0.764000000000     0          
O        O      0.227233333333     0.165166666667     0.921200000000     0          
O        O      0.282833333333     0.155166666667     0.862600000000     0          
O        O      0.306600000000     0.131466666667     0.933600000000     0          
O        O      0.250000000000     0.083333333333     0.895400000000     0          
O        O      0.083333333333     0.145333333333     0.264000000000     0          
O        O      0.001500000000     0.227233333333     0.421200000000     0          
O        O      0.011500000000     0.282833333333     0.362600000000     0          
O        O      0.035200000000     0.306600000000     0.433600000000     0          
O        O      0.021333333333     0.083333333333     0.764000000000     0          
O        O      0.272766666667     0.001500000000     0.921200000000     0          
O        O      0.217166666667     0.011500000000     0.862600000000     0          
O        O      0.193400000000     0.035200000000     0.933600000000     0          
O        O      0.083333333333     0.021333333333     0.264000000000     0          
O        O      0.001500000000     0.606100000000     0.921200000000     0          
O        O      0.011500000000     0.550500000000     0.862600000000     0          
O        O      0.035200000000     0.526733333333     0.933600000000     0          
O        O      0.083333333333     0.583333333333     0.895400000000     0          
O        O      0.052833333333     0.386166666667     0.462300000000     0          
O        O      0.000000000000     0.333333333333     0.500000000000     0          
O        O      0.001000000000     0.334333333333     0.244200000000     0          
O        O      0.021333333333     0.416666666667     0.264000000000     0          
O        O      0.019933333333     0.353266666667     0.317200000000     0          
O        O      0.040400000000     0.373733333333     0.698900000000     0          
O        O      0.052466666667     0.385800000000     0.018000000000     0          
O        O      0.083333333333     0.416666666667     0.083900000000     0          
O        O      0.227233333333     0.334833333333     0.421200000000     0          
O        O      0.282833333333     0.344833333333     0.362600000000     0          
O        O      0.306600000000     0.368533333333     0.433600000000     0          
O        O      0.250000000000     0.416666666667     0.395400000000     0          
O        O      0.113833333333     0.386166666667     0.962300000000     0          
O        O      0.166666666667     0.333333333333     0.000000000000     0          
O        O      0.165666666667     0.334333333333     0.744200000000     0          
O        O      0.083333333333     0.354666666667     0.764000000000     0          
O        O      0.146733333333     0.353266666667     0.817200000000     0          
O        O      0.126266666667     0.373733333333     0.198900000000     0          
O        O      0.114200000000     0.385800000000     0.518000000000     0          
O        O      0.083333333333     0.416666666667     0.583900000000     0          
O        O      0.165166666667     0.560566666667     0.921200000000     0          
O        O      0.155166666667     0.616166666667     0.862600000000     0          
O        O      0.131466666667     0.639933333333     0.933600000000     0          
O        O      0.113833333333     0.447166666667     0.462300000000     0          
O        O      0.166666666667     0.500000000000     0.500000000000     0          
O        O      0.165666666667     0.499000000000     0.244200000000     0          
O        O      0.145333333333     0.416666666667     0.264000000000     0          
O        O      0.146733333333     0.480066666667     0.317200000000     0          
O        O      0.126266666667     0.459600000000     0.698900000000     0          
O        O      0.114200000000     0.447533333333     0.018000000000     0          
O        O      0.272766666667     0.498500000000     0.421200000000     0          
O        O      0.217166666667     0.488500000000     0.362600000000     0          
O        O      0.193400000000     0.464800000000     0.433600000000     0          
O        O      0.052833333333     0.447166666667     0.962300000000     0          
O        O      0.000000000000     0.500000000000     0.000000000000     0          
O        O      0.001000000000     0.499000000000     0.744200000000     0          
O        O      0.083333333333     0.478666666667     0.764000000000     0          
O        O      0.019933333333     0.480066666667     0.817200000000     0          
O        O      0.040400000000     0.459600000000     0.198900000000     0          
O        O      0.052466666667     0.447533333333     0.518000000000     0          
O        O      0.168166666667     0.393900000000     0.578800000000     0          
O        O      0.178166666667     0.449500000000     0.637400000000     0          
O        O      0.201866666667     0.473266666667     0.566400000000     0          
O        O      0.250000000000     0.416666666667     0.604600000000     0          
O        O      0.219500000000     0.613833333333     0.037700000000     0          
O        O      0.167666666667     0.665666666667     0.255800000000     0          
O        O      0.188000000000     0.583333333333     0.236000000000     0          
O        O      0.186600000000     0.646733333333     0.182800000000     0          
O        O      0.207066666667     0.626266666667     0.801100000000     0          
O        O      0.219133333333     0.614200000000     0.482000000000     0          
O        O      0.250000000000     0.583333333333     0.416100000000     0          
O        O      0.106100000000     0.501500000000     0.078800000000     0          
O        O      0.050500000000     0.511500000000     0.137400000000     0          
O        O      0.026733333333     0.535200000000     0.066400000000     0          
O        O      0.083333333333     0.583333333333     0.104600000000     0          
O        O      0.219500000000     0.552833333333     0.537700000000     0          
O        O      0.167666666667     0.501000000000     0.755800000000     0          
O        O      0.250000000000     0.521333333333     0.736000000000     0          
O        O      0.186600000000     0.519933333333     0.682800000000     0          
O        O      0.207066666667     0.540400000000     0.301100000000     0          
O        O      0.219133333333     0.552466666667     0.982000000000     0          
O        O      0.250000000000     0.583333333333     0.916100000000     0          
O        O      0.331833333333     0.439433333333     0.578800000000     0          
O        O      0.321833333333     0.383833333333     0.637400000000     0          
O        O      0.298133333333     0.360066666667     0.566400000000     0          
O        O      0.280500000000     0.552833333333     0.037700000000     0          
O        O      0.332333333333     0.501000000000     0.255800000000     0          
O        O      0.312000000000     0.583333333333     0.236000000000     0          
O        O      0.313400000000     0.519933333333     0.182800000000     0          
O        O      0.292933333333     0.540400000000     0.801100000000     0          
O        O      0.280866666667     0.552466666667     0.482000000000     0          
O        O      0.060566666667     0.665166666667     0.078800000000     0          
O        O      0.116166666667     0.655166666667     0.137400000000     0          
O        O      0.139933333333     0.631466666667     0.066400000000     0          
O        O      0.280500000000     0.613833333333     0.537700000000     0          
O        O      0.332333333333     0.665666666667     0.755800000000     0          
O        O      0.250000000000     0.645333333333     0.736000000000     0          
O        O      0.313400000000     0.646733333333     0.682800000000     0          
O        O      0.292933333333     0.626266666667     0.301100000000     0          
O        O      0.280866666667     0.614200000000     0.982000000000     0          
O        O      0.331833333333     0.393900000000     0.078800000000     0          
O        O      0.321833333333     0.449500000000     0.137400000000     0          
O        O      0.298133333333     0.473266666667     0.066400000000     0          
O        O      0.250000000000     0.416666666667     0.104600000000     0          
O        O      0.312000000000     0.583333333333     0.736000000000     0          
O        O      0.106100000000     0.665166666667     0.578800000000     0          
O        O      0.050500000000     0.655166666667     0.637400000000     0          
O        O      0.026733333333     0.631466666667     0.566400000000     0          
O        O      0.083333333333     0.583333333333     0.604600000000     0          
O        O      0.250000000000     0.645333333333     0.236000000000     0          
O        O      0.168166666667     0.439433333333     0.078800000000     0          
O        O      0.178166666667     0.383833333333     0.137400000000     0          
O        O      0.201866666667     0.360066666667     0.066400000000     0          
O        O      0.188000000000     0.583333333333     0.736000000000     0          
O        O      0.060566666667     0.501500000000     0.578800000000     0          
O        O      0.116166666667     0.511500000000     0.637400000000     0          
O        O      0.139933333333     0.535200000000     0.566400000000     0          
O        O      0.250000000000     0.521333333333     0.236000000000     0          
O        O      0.165166666667     0.606100000000     0.421200000000     0          
O        O      0.155166666667     0.550500000000     0.362600000000     0          
O        O      0.131466666667     0.526733333333     0.433600000000     0          
O        O      0.083333333333     0.583333333333     0.395400000000     0          
O        O      0.145333333333     0.416666666667     0.764000000000     0          
O        O      0.227233333333     0.498500000000     0.921200000000     0          
O        O      0.282833333333     0.488500000000     0.862600000000     0          
O        O      0.306600000000     0.464800000000     0.933600000000     0          
O        O      0.250000000000     0.416666666667     0.895400000000     0          
O        O      0.083333333333     0.478666666667     0.264000000000     0          
O        O      0.001500000000     0.560566666667     0.421200000000     0          
O        O      0.011500000000     0.616166666667     0.362600000000     0          
O        O      0.035200000000     0.639933333333     0.433600000000     0          
O        O      0.021333333333     0.416666666667     0.764000000000     0          
O        O      0.272766666667     0.334833333333     0.921200000000     0          
O        O      0.217166666667     0.344833333333     0.862600000000     0          
O        O      0.193400000000     0.368533333333     0.933600000000     0          
O        O      0.083333333333     0.354666666667     0.264000000000     0          
O        O      0.001500000000     0.939433333333     0.921200000000     0          
O        O      0.011500000000     0.883833333333     0.862600000000     0          
O        O      0.035200000000     0.860066666667     0.933600000000     0          
O        O      0.083333333333     0.916666666667     0.895400000000     0          
O        O      0.052833333333     0.719500000000     0.462300000000     0          
O        O      0.000000000000     0.666666666667     0.500000000000     0          
O        O      0.001000000000     0.667666666667     0.244200000000     0          
O        O      0.021333333333     0.750000000000     0.264000000000     0          
O        O      0.019933333333     0.686600000000     0.317200000000     0          
O        O      0.040400000000     0.707066666667     0.698900000000     0          
O        O      0.052466666667     0.719133333333     0.018000000000     0          
O        O      0.083333333333     0.750000000000     0.083900000000     0          
O        O      0.227233333333     0.668166666667     0.421200000000     0          
O        O      0.282833333333     0.678166666667     0.362600000000     0          
O        O      0.306600000000     0.701866666667     0.433600000000     0          
O        O      0.250000000000     0.750000000000     0.395400000000     0          
O        O      0.113833333333     0.719500000000     0.962300000000     0          
O        O      0.166666666667     0.666666666667     0.000000000000     0          
O        O      0.165666666667     0.667666666667     0.744200000000     0          
O        O      0.083333333333     0.688000000000     0.764000000000     0          
O        O      0.146733333333     0.686600000000     0.817200000000     0          
O        O      0.126266666667     0.707066666667     0.198900000000     0          
O        O      0.114200000000     0.719133333333     0.518000000000     0          
O        O      0.083333333333     0.750000000000     0.583900000000     0          
O        O      0.165166666667     0.893900000000     0.921200000000     0          
O        O      0.155166666667     0.949500000000     0.862600000000     0          
O        O      0.131466666667     0.973266666667     0.933600000000     0          
O        O      0.113833333333     0.780500000000     0.462300000000     0          
O        O      0.166666666667     0.833333333333     0.500000000000     0          
O        O      0.165666666667     0.832333333333     0.244200000000     0          
O        O      0.145333333333     0.750000000000     0.264000000000     0          
O        O      0.146733333333     0.813400000000     0.317200000000     0          
O        O      0.126266666667     0.792933333333     0.698900000000     0          
O        O      0.114200000000     0.780866666667     0.018000000000     0          
O        O      0.272766666667     0.831833333333     0.421200000000     0          
O        O      0.217166666667     0.821833333333     0.362600000000     0          
O        O      0.193400000000     0.798133333333     0.433600000000     0          
O        O      0.052833333333     0.780500000000     0.962300000000     0          
O        O      0.000000000000     0.833333333333     0.000000000000     0          
O        O      0.001000000000     0.832333333333     0.744200000000     0          
O        O      0.083333333333     0.812000000000     0.764000000000     0          
O        O      0.019933333333     0.813400000000     0.817200000000     0          
O        O      0.040400000000     0.792933333333     0.198900000000     0          
O        O      0.052466666667     0.780866666667     0.518000000000     0          
O        O      0.168166666667     0.727233333333     0.578800000000     0          
O        O      0.178166666667     0.782833333333     0.637400000000     0          
O        O      0.201866666667     0.806600000000     0.566400000000     0          
O        O      0.250000000000     0.750000000000     0.604600000000     0          
O        O      0.219500000000     0.947166666667     0.037700000000     0          
O        O      0.167666666667     0.999000000000     0.255800000000     0          
O        O      0.188000000000     0.916666666667     0.236000000000     0          
O        O      0.186600000000     0.980066666667     0.182800000000     0          
O        O      0.207066666667     0.959600000000     0.801100000000     0          
O        O      0.219133333333     0.947533333333     0.482000000000     0          
O        O      0.250000000000     0.916666666667     0.416100000000     0          
O        O      0.106100000000     0.834833333333     0.078800000000     0          
O        O      0.050500000000     0.844833333333     0.137400000000     0          
O        O      0.026733333333     0.868533333333     0.066400000000     0          
O        O      0.083333333333     0.916666666667     0.104600000000     0          
O        O      0.219500000000     0.886166666667     0.537700000000     0          
O        O      0.167666666667     0.834333333333     0.755800000000     0          
O        O      0.250000000000     0.854666666667     0.736000000000     0          
O        O      0.186600000000     0.853266666667     0.682800000000     0          
O        O      0.207066666667     0.873733333333     0.301100000000     0          
O        O      0.219133333333     0.885800000000     0.982000000000     0          
O        O      0.250000000000     0.916666666667     0.916100000000     0          
O        O      0.331833333333     0.772766666667     0.578800000000     0          
O        O      0.321833333333     0.717166666667     0.637400000000     0          
O        O      0.298133333333     0.693400000000     0.566400000000     0          
O        O      0.280500000000     0.886166666667     0.037700000000     0          
O        O      0.332333333333     0.834333333333     0.255800000000     0          
O        O      0.312000000000     0.916666666667     0.236000000000     0          
O        O      0.313400000000     0.853266666667     0.182800000000     0          
O        O      0.292933333333     0.873733333333     0.801100000000     0          
O        O      0.280866666667     0.885800000000     0.482000000000     0          
O        O      0.060566666667     0.998500000000     0.078800000000     0          
O        O      0.116166666667     0.988500000000     0.137400000000     0          
O        O      0.139933333333     0.964800000000     0.066400000000     0          
O        O      0.280500000000     0.947166666667     0.537700000000     0          
O        O      0.332333333333     0.999000000000     0.755800000000     0          
O        O      0.250000000000     0.978666666667     0.736000000000     0          
O        O      0.313400000000     0.980066666667     0.682800000000     0          
O        O      0.292933333333     0.959600000000     0.301100000000     0          
O        O      0.280866666667     0.947533333333     0.982000000000     0          
O        O      0.331833333333     0.727233333333     0.078800000000     0          
O        O      0.321833333333     0.782833333333     0.137400000000     0          
O        O      0.298133333333     0.806600000000     0.066400000000     0          
O        O      0.250000000000     0.750000000000     0.104600000000     0          
O        O      0.312000000000     0.916666666667     0.736000000000     0          
O        O      0.106100000000     0.998500000000     0.578800000000     0          
O        O      0.050500000000     0.988500000000     0.637400000000     0          
O        O      0.026733333333     0.964800000000     0.566400000000     0          
O        O      0.083333333333     0.916666666667     0.604600000000     0          
O        O      0.250000000000     0.978666666667     0.236000000000     0          
O        O      0.168166666667     0.772766666667     0.078800000000     0          
O        O      0.178166666667     0.717166666667     0.137400000000     0          
O        O      0.201866666667     0.693400000000     0.066400000000     0          
O        O      0.188000000000     0.916666666667     0.736000000000     0          
O        O      0.060566666667     0.834833333333     0.578800000000     0          
O        O      0.116166666667     0.844833333333     0.637400000000     0          
O        O      0.139933333333     0.868533333333     0.566400000000     0          
O        O      0.250000000000     0.854666666667     0.236000000000     0          
O        O      0.165166666667     0.939433333333     0.421200000000     0          
O        O      0.155166666667     0.883833333333     0.362600000000     0          
O        O      0.131466666667     0.860066666667     0.433600000000     0          
O        O      0.083333333333     0.916666666667     0.395400000000     0          
O        O      0.145333333333     0.750000000000     0.764000000000     0          
O        O      0.227233333333     0.831833333333     0.921200000000     0          
O        O      0.282833333333     0.821833333333     0.862600000000     0          
O        O      0.306600000000     0.798133333333     0.933600000000     0          
O        O      0.250000000000     0.750000000000     0.895400000000     0          
O        O      0.083333333333     0.812000000000     0.264000000000     0          
O        O      0.001500000000     0.893900000000     0.421200000000     0          
O        O      0.011500000000     0.949500000000     0.362600000000     0          
O        O      0.035200000000     0.973266666667     0.433600000000     0          
O        O      0.021333333333     0.750000000000     0.764000000000     0          
O        O      0.272766666667     0.668166666667     0.921200000000     0          
O        O      0.217166666667     0.678166666667     0.862600000000     0          
O        O      0.193400000000     0.701866666667     0.933600000000     0          
O        O      0.083333333333     0.688000000000     0.264000000000     0          
O        O      0.334833333333     0.272766666667     0.921200000000     0          
O        O      0.344833333333     0.217166666667     0.862600000000     0          
O        O      0.368533333333     0.193400000000     0.933600000000     0          
O        O      0.416666666667     0.250000000000     0.895400000000     0          
O        O      0.386166666667     0.052833333333     0.462300000000     0          
O        O      0.333333333333     0.000000000000     0.500000000000     0          
O        O      0.334333333333     0.001000000000     0.244200000000     0          
O        O      0.354666666667     0.083333333333     0.264000000000     0          
O        O      0.353266666667     0.019933333333     0.317200000000     0          
O        O      0.373733333333     0.040400000000     0.698900000000     0          
O        O      0.385800000000     0.052466666667     0.018000000000     0          
O        O      0.416666666667     0.083333333333     0.083900000000     0          
O        O      0.560566666667     0.001500000000     0.421200000000     0          
O        O      0.616166666667     0.011500000000     0.362600000000     0          
O        O      0.639933333333     0.035200000000     0.433600000000     0          
O        O      0.583333333333     0.083333333333     0.395400000000     0          
O        O      0.447166666667     0.052833333333     0.962300000000     0          
O        O      0.500000000000     0.000000000000     0.000000000000     0          
O        O      0.499000000000     0.001000000000     0.744200000000     0          
O        O      0.416666666667     0.021333333333     0.764000000000     0          
O        O      0.480066666667     0.019933333333     0.817200000000     0          
O        O      0.459600000000     0.040400000000     0.198900000000     0          
O        O      0.447533333333     0.052466666667     0.518000000000     0          
O        O      0.416666666667     0.083333333333     0.583900000000     0          
O        O      0.498500000000     0.227233333333     0.921200000000     0          
O        O      0.488500000000     0.282833333333     0.862600000000     0          
O        O      0.464800000000     0.306600000000     0.933600000000     0          
O        O      0.447166666667     0.113833333333     0.462300000000     0          
O        O      0.500000000000     0.166666666667     0.500000000000     0          
O        O      0.499000000000     0.165666666667     0.244200000000     0          
O        O      0.478666666667     0.083333333333     0.264000000000     0          
O        O      0.480066666667     0.146733333333     0.317200000000     0          
O        O      0.459600000000     0.126266666667     0.698900000000     0          
O        O      0.447533333333     0.114200000000     0.018000000000     0          
O        O      0.606100000000     0.165166666667     0.421200000000     0          
O        O      0.550500000000     0.155166666667     0.362600000000     0          
O        O      0.526733333333     0.131466666667     0.433600000000     0          
O        O      0.386166666667     0.113833333333     0.962300000000     0          
O        O      0.333333333333     0.166666666667     0.000000000000     0          
O        O      0.334333333333     0.165666666667     0.744200000000     0          
O        O      0.416666666667     0.145333333333     0.764000000000     0          
O        O      0.353266666667     0.146733333333     0.817200000000     0          
O        O      0.373733333333     0.126266666667     0.198900000000     0          
O        O      0.385800000000     0.114200000000     0.518000000000     0          
O        O      0.501500000000     0.060566666667     0.578800000000     0          
O        O      0.511500000000     0.116166666667     0.637400000000     0          
O        O      0.535200000000     0.139933333333     0.566400000000     0          
O        O      0.583333333333     0.083333333333     0.604600000000     0          
O        O      0.552833333333     0.280500000000     0.037700000000     0          
O        O      0.501000000000     0.332333333333     0.255800000000     0          
O        O      0.521333333333     0.250000000000     0.236000000000     0          
O        O      0.519933333333     0.313400000000     0.182800000000     0          
O        O      0.540400000000     0.292933333333     0.801100000000     0          
O        O      0.552466666667     0.280866666667     0.482000000000     0          
O        O      0.583333333333     0.250000000000     0.416100000000     0          
O        O      0.439433333333     0.168166666667     0.078800000000     0          
O        O      0.383833333333     0.178166666667     0.137400000000     0          
O        O      0.360066666667     0.201866666667     0.066400000000     0          
O        O      0.416666666667     0.250000000000     0.104600000000     0          
O        O      0.552833333333     0.219500000000     0.537700000000     0          
O        O      0.501000000000     0.167666666667     0.755800000000     0          
O        O      0.583333333333     0.188000000000     0.736000000000     0          
O        O      0.519933333333     0.186600000000     0.682800000000     0          
O        O      0.540400000000     0.207066666667     0.301100000000     0          
O        O      0.552466666667     0.219133333333     0.982000000000     0          
O        O      0.583333333333     0.250000000000     0.916100000000     0          
O        O      0.665166666667     0.106100000000     0.578800000000     0          
O        O      0.655166666667     0.050500000000     0.637400000000     0          
O        O      0.631466666667     0.026733333333     0.566400000000     0          
O        O      0.613833333333     0.219500000000     0.037700000000     0          
O        O      0.665666666667     0.167666666667     0.255800000000     0          
O        O      0.645333333333     0.250000000000     0.236000000000     0          
O        O      0.646733333333     0.186600000000     0.182800000000     0          
O        O      0.626266666667     0.207066666667     0.801100000000     0          
O        O      0.614200000000     0.219133333333     0.482000000000     0          
O        O      0.393900000000     0.331833333333     0.078800000000     0          
O        O      0.449500000000     0.321833333333     0.137400000000     0          
O        O      0.473266666667     0.298133333333     0.066400000000     0          
O        O      0.613833333333     0.280500000000     0.537700000000     0          
O        O      0.665666666667     0.332333333333     0.755800000000     0          
O        O      0.583333333333     0.312000000000     0.736000000000     0          
O        O      0.646733333333     0.313400000000     0.682800000000     0          
O        O      0.626266666667     0.292933333333     0.301100000000     0          
O        O      0.614200000000     0.280866666667     0.982000000000     0          
O        O      0.665166666667     0.060566666667     0.078800000000     0          
O        O      0.655166666667     0.116166666667     0.137400000000     0          
O        O      0.631466666667     0.139933333333     0.066400000000     0          
O        O      0.583333333333     0.083333333333     0.104600000000     0          
O        O      0.645333333333     0.250000000000     0.736000000000     0          
O        O      0.439433333333     0.331833333333     0.578800000000     0          
O        O      0.383833333333     0.321833333333     0.637400000000     0          
O        O      0.360066666667     0.298133333333     0.566400000000     0          
O        O      0.416666666667     0.250000000000     0.604600000000     0          
O        O      0.583333333333     0.312000000000     0.236000000000     0          
O        O      0.501500000000     0.106100000000     0.078800000000     0          
O        O      0.511500000000     0.050500000000     0.137400000000     0          
O        O      0.535200000000     0.026733333333     0.066400000000     0          
O        O      0.521333333333     0.250000000000     0.736000000000     0          
O        O      0.393900000000     0.168166666667     0.578800000000     0          
O        O      0.449500000000     0.178166666667     0.637400000000     0          
O        O      0.473266666667     0.201866666667     0.566400000000     0          
O        O      0.583333333333     0.188000000000     0.236000000000     0          
O        O      0.498500000000     0.272766666667     0.421200000000     0          
O        O      0.488500000000     0.217166666667     0.362600000000     0          
O        O      0.464800000000     0.193400000000     0.433600000000     0          
O        O      0.416666666667     0.250000000000     0.395400000000     0          
O        O      0.478666666667     0.083333333333     0.764000000000     0          
O        O      0.560566666667     0.165166666667     0.921200000000     0          
O        O      0.616166666667     0.155166666667     0.862600000000     0          
O        O      0.639933333333     0.131466666667     0.933600000000     0          
O        O      0.583333333333     0.083333333333     0.895400000000     0          
O        O      0.416666666667     0.145333333333     0.264000000000     0          
O        O      0.334833333333     0.227233333333     0.421200000000     0          
O        O      0.344833333333     0.282833333333     0.362600000000     0          
O        O      0.368533333333     0.306600000000     0.433600000000     0          
O        O      0.354666666667     0.083333333333     0.764000000000     0          
O        O      0.606100000000     0.001500000000     0.921200000000     0          
O        O      0.550500000000     0.011500000000     0.862600000000     0          
O        O      0.526733333333     0.035200000000     0.933600000000     0          
O        O      0.416666666667     0.021333333333     0.264000000000     0          
O        O      0.334833333333     0.606100000000     0.921200000000     0          
O        O      0.344833333333     0.550500000000     0.862600000000     0          
O        O      0.368533333333     0.526733333333     0.933600000000     0          
O        O      0.416666666667     0.583333333333     0.895400000000     0          
O        O      0.386166666667     0.386166666667     0.462300000000     0          
O        O      0.333333333333     0.333333333333     0.500000000000     0          
O        O      0.334333333333     0.334333333333     0.244200000000     0          
O        O      0.354666666667     0.416666666667     0.264000000000     0          
O        O      0.353266666667     0.353266666667     0.317200000000     0          
O        O      0.373733333333     0.373733333333     0.698900000000     0          
O        O      0.385800000000     0.385800000000     0.018000000000     0          
O        O      0.416666666667     0.416666666667     0.083900000000     0          
O        O      0.560566666667     0.334833333333     0.421200000000     0          
O        O      0.616166666667     0.344833333333     0.362600000000     0          
O        O      0.639933333333     0.368533333333     0.433600000000     0          
O        O      0.583333333333     0.416666666667     0.395400000000     0          
O        O      0.447166666667     0.386166666667     0.962300000000     0          
O        O      0.500000000000     0.333333333333     0.000000000000     0          
O        O      0.499000000000     0.334333333333     0.744200000000     0          
O        O      0.416666666667     0.354666666667     0.764000000000     0          
O        O      0.480066666667     0.353266666667     0.817200000000     0          
O        O      0.459600000000     0.373733333333     0.198900000000     0          
O        O      0.447533333333     0.385800000000     0.518000000000     0          
O        O      0.416666666667     0.416666666667     0.583900000000     0          
O        O      0.498500000000     0.560566666667     0.921200000000     0          
O        O      0.488500000000     0.616166666667     0.862600000000     0          
O        O      0.464800000000     0.639933333333     0.933600000000     0          
O        O      0.447166666667     0.447166666667     0.462300000000     0          
O        O      0.500000000000     0.500000000000     0.500000000000     0          
O        O      0.499000000000     0.499000000000     0.244200000000     0          
O        O      0.478666666667     0.416666666667     0.264000000000     0          
O        O      0.480066666667     0.480066666667     0.317200000000     0          
O        O      0.459600000000     0.459600000000     0.698900000000     0          
O        O      0.447533333333     0.447533333333     0.018000000000     0          
O        O      0.606100000000     0.498500000000     0.421200000000     0          
O        O      0.550500000000     0.488500000000     0.362600000000     0          
O        O      0.526733333333     0.464800000000     0.433600000000     0          
O        O      0.386166666667     0.447166666667     0.962300000000     0          
O        O      0.333333333333     0.500000000000     0.000000000000     0          
O        O      0.334333333333     0.499000000000     0.744200000000     0          
O        O      0.416666666667     0.478666666667     0.764000000000     0          
O        O      0.353266666667     0.480066666667     0.817200000000     0          
O        O      0.373733333333     0.459600000000     0.198900000000     0          
O        O      0.385800000000     0.447533333333     0.518000000000     0          
O        O      0.501500000000     0.393900000000     0.578800000000     0          
O        O      0.511500000000     0.449500000000     0.637400000000     0          
O        O      0.535200000000     0.473266666667     0.566400000000     0          
O        O      0.583333333333     0.416666666667     0.604600000000     0          
O        O      0.552833333333     0.613833333333     0.037700000000     0          
O        O      0.501000000000     0.665666666667     0.255800000000     0          
O        O      0.521333333333     0.583333333333     0.236000000000     0          
O        O      0.519933333333     0.646733333333     0.182800000000     0          
O        O      0.540400000000     0.626266666667     0.801100000000     0          
O        O      0.552466666667     0.614200000000     0.482000000000     0          
O        O      0.583333333333     0.583333333333     0.416100000000     0          
O        O      0.439433333333     0.501500000000     0.078800000000     0          
O        O      0.383833333333     0.511500000000     0.137400000000     0          
O        O      0.360066666667     0.535200000000     0.066400000000     0          
O        O      0.416666666667     0.583333333333     0.104600000000     0          
O        O      0.552833333333     0.552833333333     0.537700000000     0          
O        O      0.501000000000     0.501000000000     0.755800000000     0          
O        O      0.583333333333     0.521333333333     0.736000000000     0          
O        O      0.519933333333     0.519933333333     0.682800000000     0          
O        O      0.540400000000     0.540400000000     0.301100000000     0          
O        O      0.552466666667     0.552466666667     0.982000000000     0          
O        O      0.583333333333     0.583333333333     0.916100000000     0          
O        O      0.665166666667     0.439433333333     0.578800000000     0          
O        O      0.655166666667     0.383833333333     0.637400000000     0          
O        O      0.631466666667     0.360066666667     0.566400000000     0          
O        O      0.613833333333     0.552833333333     0.037700000000     0          
O        O      0.665666666667     0.501000000000     0.255800000000     0          
O        O      0.645333333333     0.583333333333     0.236000000000     0          
O        O      0.646733333333     0.519933333333     0.182800000000     0          
O        O      0.626266666667     0.540400000000     0.801100000000     0          
O        O      0.614200000000     0.552466666667     0.482000000000     0          
O        O      0.393900000000     0.665166666667     0.078800000000     0          
O        O      0.449500000000     0.655166666667     0.137400000000     0          
O        O      0.473266666667     0.631466666667     0.066400000000     0          
O        O      0.613833333333     0.613833333333     0.537700000000     0          
O        O      0.665666666667     0.665666666667     0.755800000000     0          
O        O      0.583333333333     0.645333333333     0.736000000000     0          
O        O      0.646733333333     0.646733333333     0.682800000000     0          
O        O      0.626266666667     0.626266666667     0.301100000000     0          
O        O      0.614200000000     0.614200000000     0.982000000000     0          
O        O      0.665166666667     0.393900000000     0.078800000000     0          
O        O      0.655166666667     0.449500000000     0.137400000000     0          
O        O      0.631466666667     0.473266666667     0.066400000000     0          
O        O      0.583333333333     0.416666666667     0.104600000000     0          
O        O      0.645333333333     0.583333333333     0.736000000000     0          
O        O      0.439433333333     0.665166666667     0.578800000000     0          
O        O      0.383833333333     0.655166666667     0.637400000000     0          
O        O      0.360066666667     0.631466666667     0.566400000000     0          
O        O      0.416666666667     0.583333333333     0.604600000000     0          
O        O      0.583333333333     0.645333333333     0.236000000000     0          
O        O      0.501500000000     0.439433333333     0.078800000000     0          
O        O      0.511500000000     0.383833333333     0.137400000000     0          
O        O      0.535200000000     0.360066666667     0.066400000000     0          
O        O      0.521333333333     0.583333333333     0.736000000000     0          
O        O      0.393900000000     0.501500000000     0.578800000000     0          
O        O      0.449500000000     0.511500000000     0.637400000000     0          
O        O      0.473266666667     0.535200000000     0.566400000000     0          
O        O      0.583333333333     0.521333333333     0.236000000000     0          
O        O      0.498500000000     0.606100000000     0.421200000000     0          
O        O      0.488500000000     0.550500000000     0.362600000000     0          
O        O      0.464800000000     0.526733333333     0.433600000000     0          
O        O      0.416666666667     0.583333333333     0.395400000000     0          
O        O      0.478666666667     0.416666666667     0.764000000000     0          
O        O      0.560566666667     0.498500000000     0.921200000000     0          
O        O      0.616166666667     0.488500000000     0.862600000000     0          
O        O      0.639933333333     0.464800000000     0.933600000000     0          
O        O      0.583333333333     0.416666666667     0.895400000000     0          
O        O      0.416666666667     0.478666666667     0.264000000000     0          
O        O      0.334833333333     0.560566666667     0.421200000000     0          
O        O      0.344833333333     0.616166666667     0.362600000000     0          
O        O      0.368533333333     0.639933333333     0.433600000000     0          
O        O      0.354666666667     0.416666666667     0.764000000000     0          
O        O      0.606100000000     0.334833333333     0.921200000000     0          
O        O      0.550500000000     0.344833333333     0.862600000000     0          
O        O      0.526733333333     0.368533333333     0.933600000000     0          
O        O      0.416666666667     0.354666666667     0.264000000000     0          
O        O      0.334833333333     0.939433333333     0.921200000000     0          
O        O      0.344833333333     0.883833333333     0.862600000000     0          
O        O      0.368533333333     0.860066666667     0.933600000000     0          
O        O      0.416666666667     0.916666666667     0.895400000000     0          
O        O      0.386166666667     0.719500000000     0.462300000000     0          
O        O      0.333333333333     0.666666666667     0.500000000000     0          
O        O      0.334333333333     0.667666666667     0.244200000000     0          
O        O      0.354666666667     0.750000000000     0.264000000000     0          
O        O      0.353266666667     0.686600000000     0.317200000000     0          
O        O      0.373733333333     0.707066666667     0.698900000000     0          
O        O      0.385800000000     0.719133333333     0.018000000000     0          
O        O      0.416666666667     0.750000000000     0.083900000000     0          
O        O      0.560566666667     0.668166666667     0.421200000000     0          
O        O      0.616166666667     0.678166666667     0.362600000000     0          
O        O      0.639933333333     0.701866666667     0.433600000000     0          
O        O      0.583333333333     0.750000000000     0.395400000000     0          
O        O      0.447166666667     0.719500000000     0.962300000000     0          
O        O      0.500000000000     0.666666666667     0.000000000000     0          
O        O      0.499000000000     0.667666666667     0.744200000000     0          
O        O      0.416666666667     0.688000000000     0.764000000000     0          
O        O      0.480066666667     0.686600000000     0.817200000000     0          
O        O      0.459600000000     0.707066666667     0.198900000000     0          
O        O      0.447533333333     0.719133333333     0.518000000000     0          
O        O      0.416666666667     0.750000000000     0.583900000000     0          
O        O      0.498500000000     0.893900000000     0.921200000000     0          
O        O      0.488500000000     0.949500000000     0.862600000000     0          
O        O      0.464800000000     0.973266666667     0.933600000000     0          
O        O      0.447166666667     0.780500000000     0.462300000000     0          
O        O      0.500000000000     0.833333333333     0.500000000000     0          
O        O      0.499000000000     0.832333333333     0.244200000000     0          
O        O      0.478666666667     0.750000000000     0.264000000000     0          
O        O      0.480066666667     0.813400000000     0.317200000000     0          
O        O      0.459600000000     0.792933333333     0.698900000000     0          
O        O      0.447533333333     0.780866666667     0.018000000000     0          
O        O      0.606100000000     0.831833333333     0.421200000000     0          
O        O      0.550500000000     0.821833333333     0.362600000000     0          
O        O      0.526733333333     0.798133333333     0.433600000000     0          
O        O      0.386166666667     0.780500000000     0.962300000000     0          
O        O      0.333333333333     0.833333333333     0.000000000000     0          
O        O      0.334333333333     0.832333333333     0.744200000000     0          
O        O      0.416666666667     0.812000000000     0.764000000000     0          
O        O      0.353266666667     0.813400000000     0.817200000000     0          
O        O      0.373733333333     0.792933333333     0.198900000000     0          
O        O      0.385800000000     0.780866666667     0.518000000000     0          
O        O      0.501500000000     0.727233333333     0.578800000000     0          
O        O      0.511500000000     0.782833333333     0.637400000000     0          
O        O      0.535200000000     0.806600000000     0.566400000000     0          
O        O      0.583333333333     0.750000000000     0.604600000000     0          
O        O      0.552833333333     0.947166666667     0.037700000000     0          
O        O      0.501000000000     0.999000000000     0.255800000000     0          
O        O      0.521333333333     0.916666666667     0.236000000000     0          
O        O      0.519933333333     0.980066666667     0.182800000000     0          
O        O      0.540400000000     0.959600000000     0.801100000000     0          
O        O      0.552466666667     0.947533333333     0.482000000000     0          
O        O      0.583333333333     0.916666666667     0.416100000000     0          
O        O      0.439433333333     0.834833333333     0.078800000000     0          
O        O      0.383833333333     0.844833333333     0.137400000000     0          
O        O      0.360066666667     0.868533333333     0.066400000000     0          
O        O      0.416666666667     0.916666666667     0.104600000000     0          
O        O      0.552833333333     0.886166666667     0.537700000000     0          
O        O      0.501000000000     0.834333333333     0.755800000000     0          
O        O      0.583333333333     0.854666666667     0.736000000000     0          
O        O      0.519933333333     0.853266666667     0.682800000000     0          
O        O      0.540400000000     0.873733333333     0.301100000000     0          
O        O      0.552466666667     0.885800000000     0.982000000000     0          
O        O      0.583333333333     0.916666666667     0.916100000000     0          
O        O      0.665166666667     0.772766666667     0.578800000000     0          
O        O      0.655166666667     0.717166666667     0.637400000000     0          
O        O      0.631466666667     0.693400000000     0.566400000000     0          
O        O      0.613833333333     0.886166666667     0.037700000000     0          
O        O      0.665666666667     0.834333333333     0.255800000000     0          
O        O      0.645333333333     0.916666666667     0.236000000000     0          
O        O      0.646733333333     0.853266666667     0.182800000000     0          
O        O      0.626266666667     0.873733333333     0.801100000000     0          
O        O      0.614200000000     0.885800000000     0.482000000000     0          
O        O      0.393900000000     0.998500000000     0.078800000000     0          
O        O      0.449500000000     0.988500000000     0.137400000000     0          
O        O      0.473266666667     0.964800000000     0.066400000000     0          
O        O      0.613833333333     0.947166666667     0.537700000000     0          
O        O      0.665666666667     0.999000000000     0.755800000000     0          
O        O      0.583333333333     0.978666666667     0.736000000000     0          
O        O      0.646733333333     0.980066666667     0.682800000000     0          
O        O      0.626266666667     0.959600000000     0.301100000000     0          
O        O      0.614200000000     0.947533333333     0.982000000000     0          
O        O      0.665166666667     0.727233333333     0.078800000000     0          
O        O      0.655166666667     0.782833333333     0.137400000000     0          
O        O      0.631466666667     0.806600000000     0.066400000000     0          
O        O      0.583333333333     0.750000000000     0.104600000000     0          
O        O      0.645333333333     0.916666666667     0.736000000000     0          
O        O      0.439433333333     0.998500000000     0.578800000000     0          
O        O      0.383833333333     0.988500000000     0.637400000000     0          
O        O      0.360066666667     0.964800000000     0.566400000000     0          
O        O      0.416666666667     0.916666666667     0.604600000000     0          
O        O      0.583333333333     0.978666666667     0.236000000000     0          
O        O      0.501500000000     0.772766666667     0.078800000000     0          
O        O      0.511500000000     0.717166666667     0.137400000000     0          
O        O      0.535200000000     0.693400000000     0.066400000000     0          
O        O      0.521333333333     0.916666666667     0.736000000000     0          
O        O      0.393900000000     0.834833333333     0.578800000000     0          
O        O      0.449500000000     0.844833333333     0.637400000000     0          
O        O      0.473266666667     0.868533333333     0.566400000000     0          
O        O      0.583333333333     0.854666666667     0.236000000000     0          
O        O      0.498500000000     0.939433333333     0.421200000000     0          
O        O      0.488500000000     0.883833333333     0.362600000000     0          
O        O      0.464800000000     0.860066666667     0.433600000000     0          
O        O      0.416666666667     0.916666666667     0.395400000000     0          
O        O      0.478666666667     0.750000000000     0.764000000000     0          
O        O      0.560566666667     0.831833333333     0.921200000000     0          
O        O      0.616166666667     0.821833333333     0.862600000000     0          
O        O      0.639933333333     0.798133333333     0.933600000000     0          
O        O      0.583333333333     0.750000000000     0.895400000000     0          
O        O      0.416666666667     0.812000000000     0.264000000000     0          
O        O      0.334833333333     0.893900000000     0.421200000000     0          
O        O      0.344833333333     0.949500000000     0.362600000000     0          
O        O      0.368533333333     0.973266666667     0.433600000000     0          
O        O      0.354666666667     0.750000000000     0.764000000000     0          
O        O      0.606100000000     0.668166666667     0.921200000000     0          
O        O      0.550500000000     0.678166666667     0.862600000000     0          
O        O      0.526733333333     0.701866666667     0.933600000000     0          
O        O      0.416666666667     0.688000000000     0.264000000000     0          
O        O      0.668166666667     0.272766666667     0.921200000000     0          
O        O      0.678166666667     0.217166666667     0.862600000000     0          
O        O      0.701866666667     0.193400000000     0.933600000000     0          
O        O      0.750000000000     0.250000000000     0.895400000000     0          
O        O      0.719500000000     0.052833333333     0.462300000000     0          
O        O      0.666666666667     0.000000000000     0.500000000000     0          
O        O      0.667666666667     0.001000000000     0.244200000000     0          
O        O      0.688000000000     0.083333333333     0.264000000000     0          
O        O      0.686600000000     0.019933333333     0.317200000000     0          
O        O      0.707066666667     0.040400000000     0.698900000000     0          
O        O      0.719133333333     0.052466666667     0.018000000000     0          
O        O      0.750000000000     0.083333333333     0.083900000000     0          
O        O      0.893900000000     0.001500000000     0.421200000000     0          
O        O      0.949500000000     0.011500000000     0.362600000000     0          
O        O      0.973266666667     0.035200000000     0.433600000000     0          
O        O      0.916666666667     0.083333333333     0.395400000000     0          
O        O      0.780500000000     0.052833333333     0.962300000000     0          
O        O      0.833333333333     0.000000000000     0.000000000000     0          
O        O      0.832333333333     0.001000000000     0.744200000000     0          
O        O      0.750000000000     0.021333333333     0.764000000000     0          
O        O      0.813400000000     0.019933333333     0.817200000000     0          
O        O      0.792933333333     0.040400000000     0.198900000000     0          
O        O      0.780866666667     0.052466666667     0.518000000000     0          
O        O      0.750000000000     0.083333333333     0.583900000000     0          
O        O      0.831833333333     0.227233333333     0.921200000000     0          
O        O      0.821833333333     0.282833333333     0.862600000000     0          
O        O      0.798133333333     0.306600000000     0.933600000000     0          
O        O      0.780500000000     0.113833333333     0.462300000000     0          
O        O      0.833333333333     0.166666666667     0.500000000000     0          
O        O      0.832333333333     0.165666666667     0.244200000000     0          
O        O      0.812000000000     0.083333333333     0.264000000000     0          
O        O      0.813400000000     0.146733333333     0.317200000000     0          
O        O      0.792933333333     0.126266666667     0.698900000000     0          
O        O      0.780866666667     0.114200000000     0.018000000000     0          
O        O      0.939433333333     0.165166666667     0.421200000000     0          
O        O      0.883833333333     0.155166666667     0.362600000000     0          
O        O      0.860066666667     0.131466666667     0.433600000000     0          
O        O      0.719500000000     0.113833333333     0.962300000000     0          
O        O      0.666666666667     0.166666666667     0.000000000000     0          
O        O      0.667666666667     0.165666666667     0.744200000000     0          
O        O      0.750000000000     0.145333333333     0.764000000000     0          
O        O      0.686600000000     0.146733333333     0.817200000000     0          
O        O      0.707066666667     0.126266666667     0.198900000000     0          
O        O      0.719133333333     0.114200000000     0.518000000000     0          
O        O      0.834833333333     0.060566666667     0.578800000000     0          
O        O      0.844833333333     0.116166666667     0.637400000000     0          
O        O      0.868533333333     0.139933333333     0.566400000000     0          
O        O      0.916666666667     0.083333333333     0.604600000000     0          
O        O      0.886166666667     0.280500000000     0.037700000000     0          
O        O      0.834333333333     0.332333333333     0.255800000000     0          
O        O      0.854666666667     0.250000000000     0.236000000000     0          
O        O      0.853266666667     0.313400000000     0.182800000000     0          
O        O      0.873733333333     0.292933333333     0.801100000000     0          
O        O      0.885800000000     0.280866666667     0.482000000000     0          
O        O      0.916666666667     0.250000000000     0.416100000000     0          
O        O      0.772766666667     0.168166666667     0.078800000000     0          
O        O      0.717166666667     0.178166666667     0.137400000000     0          
O        O      0.693400000000     0.201866666667     0.066400000000     0          
O        O      0.750000000000     0.250000000000     0.104600000000     0          
O        O      0.886166666667     0.219500000000     0.537700000000     0          
O        O      0.834333333333     0.167666666667     0.755800000000     0          
O        O      0.916666666667     0.188000000000     0.736000000000     0          
O        O      0.853266666667     0.186600000000     0.682800000000     0          
O        O      0.873733333333     0.207066666667     0.301100000000     0          
O        O      0.885800000000     0.219133333333     0.982000000000     0          
O        O      0.916666666667     0.250000000000     0.916100000000     0          
O        O      0.998500000000     0.106100000000     0.578800000000     0          
O        O      0.988500000000     0.050500000000     0.637400000000     0          
O        O      0.964800000000     0.026733333333     0.566400000000     0          
O        O      0.947166666667     0.219500000000     0.037700000000     0          
O        O      0.999000000000     0.167666666667     0.255800000000     0          
O        O      0.978666666667     0.250000000000     0.236000000000     0          
O        O      0.980066666667     0.186600000000     0.182800000000     0          
O        O      0.959600000000     0.207066666667     0.801100000000     0          
O        O      0.947533333333     0.219133333333     0.482000000000     0          
O        O      0.727233333333     0.331833333333     0.078800000000     0          
O        O      0.782833333333     0.321833333333     0.137400000000     0          
O        O      0.806600000000     0.298133333333     0.066400000000     0          
O        O      0.947166666667     0.280500000000     0.537700000000     0          
O        O      0.999000000000     0.332333333333     0.755800000000     0          
O        O      0.916666666667     0.312000000000     0.736000000000     0          
O        O      0.980066666667     0.313400000000     0.682800000000     0          
O        O      0.959600000000     0.292933333333     0.301100000000     0          
O        O      0.947533333333     0.280866666667     0.982000000000     0          
O        O      0.998500000000     0.060566666667     0.078800000000     0          
O        O      0.988500000000     0.116166666667     0.137400000000     0          
O        O      0.964800000000     0.139933333333     0.066400000000     0          
O        O      0.916666666667     0.083333333333     0.104600000000     0          
O        O      0.978666666667     0.250000000000     0.736000000000     0          
O        O      0.772766666667     0.331833333333     0.578800000000     0          
O        O      0.717166666667     0.321833333333     0.637400000000     0          
O        O      0.693400000000     0.298133333333     0.566400000000     0          
O        O      0.750000000000     0.250000000000     0.604600000000     0          
O        O      0.916666666667     0.312000000000     0.236000000000     0          
O        O      0.834833333333     0.106100000000     0.078800000000     0          
O        O      0.844833333333     0.050500000000     0.137400000000     0          
O        O      0.868533333333     0.026733333333     0.066400000000     0          
O        O      0.854666666667     0.250000000000     0.736000000000     0          
O        O      0.727233333333     0.168166666667     0.578800000000     0          
O        O      0.782833333333     0.178166666667     0.637400000000     0          
O        O      0.806600000000     0.201866666667     0.566400000000     0          
O        O      0.916666666667     0.188000000000     0.236000000000     0          
O        O      0.831833333333     0.272766666667     0.421200000000     0          
O        O      0.821833333333     0.217166666667     0.362600000000     0          
O        O      0.798133333333     0.193400000000     0.433600000000     0          
O        O      0.750000000000     0.250000000000     0.395400000000     0          
O        O      0.812000000000     0.083333333333     0.764000000000     0          
O        O      0.893900000000     0.165166666667     0.921200000000     0          
O        O      0.949500000000     0.155166666667     0.862600000000     0          
O        O      0.973266666667     0.131466666667     0.933600000000     0          
O        O      0.916666666667     0.083333333333     0.895400000000     0          
O        O      0.750000000000     0.145333333333     0.264000000000     0          
O        O      0.668166666667     0.227233333333     0.421200000000     0          
O        O      0.678166666667     0.282833333333     0.362600000000     0          
O        O      0.701866666667     0.306600000000     0.433600000000     0          
O        O      0.688000000000     0.083333333333     0.764000000000     0          
O        O      0.939433333333     0.001500000000     0.921200000000     0          
O        O      0.883833333333     0.011500000000     0.862600000000     0          
O        O      0.860066666667     0.035200000000     0.933600000000     0          
O        O      0.750000000000     0.021333333333     0.264000000000     0          
O        O      0.668166666667     0.606100000000     0.921200000000     0          
O        O      0.678166666667     0.550500000000     0.862600000000     0          
O        O      0.701866666667     0.526733333333     0.933600000000     0          
O        O      0.750000000000     0.583333333333     0.895400000000     0          
O        O      0.719500000000     0.386166666667     0.462300000000     0          
O        O      0.666666666667     0.333333333333     0.500000000000     0          
O        O      0.667666666667     0.334333333333     0.244200000000     0          
O        O      0.688000000000     0.416666666667     0.264000000000     0          
O        O      0.686600000000     0.353266666667     0.317200000000     0          
O        O      0.707066666667     0.373733333333     0.698900000000     0          
O        O      0.719133333333     0.385800000000     0.018000000000     0          
O        O      0.750000000000     0.416666666667     0.083900000000     0          
O        O      0.893900000000     0.334833333333     0.421200000000     0          
O        O      0.949500000000     0.344833333333     0.362600000000     0          
O        O      0.973266666667     0.368533333333     0.433600000000     0          
O        O      0.916666666667     0.416666666667     0.395400000000     0          
O        O      0.780500000000     0.386166666667     0.962300000000     0          
O        O      0.833333333333     0.333333333333     0.000000000000     0          
O        O      0.832333333333     0.334333333333     0.744200000000     0          
O        O      0.750000000000     0.354666666667     0.764000000000     0          
O        O      0.813400000000     0.353266666667     0.817200000000     0          
O        O      0.792933333333     0.373733333333     0.198900000000     0          
O        O      0.780866666667     0.385800000000     0.518000000000     0          
O        O      0.750000000000     0.416666666667     0.583900000000     0          
O        O      0.831833333333     0.560566666667     0.921200000000     0          
O        O      0.821833333333     0.616166666667     0.862600000000     0          
O        O      0.798133333333     0.639933333333     0.933600000000     0          
O        O      0.780500000000     0.447166666667     0.462300000000     0          
O        O      0.833333333333     0.500000000000     0.500000000000     0          
O        O      0.832333333333     0.499000000000     0.244200000000     0          
O        O      0.812000000000     0.416666666667     0.264000000000     0          
O        O      0.813400000000     0.480066666667     0.317200000000     0          
O        O      0.792933333333     0.459600000000     0.698900000000     0          
O        O      0.780866666667     0.447533333333     0.018000000000     0          
O        O      0.939433333333     0.498500000000     0.421200000000     0          
O        O      0.883833333333     0.488500000000     0.362600000000     0          
O        O      0.860066666667     0.464800000000     0.433600000000     0          
O        O      0.719500000000     0.447166666667     0.962300000000     0          
O        O      0.666666666667     0.500000000000     0.000000000000     0          
O        O      0.667666666667     0.499000000000     0.744200000000     0          
O        O      0.750000000000     0.478666666667     0.764000000000     0          
O        O      0.686600000000     0.480066666667     0.817200000000     0          
O        O      0.707066666667     0.459600000000     0.198900000000     0          
O        O      0.719133333333     0.447533333333     0.518000000000     0          
O        O      0.834833333333     0.393900000000     0.578800000000     0          
O        O      0.844833333333     0.449500000000     0.637400000000     0          
O        O      0.868533333333     0.473266666667     0.566400000000     0          
O        O      0.916666666667     0.416666666667     0.604600000000     0          
O        O      0.886166666667     0.613833333333     0.037700000000     0          
O        O      0.834333333333     0.665666666667     0.255800000000     0          
O        O      0.854666666667     0.583333333333     0.236000000000     0          
O        O      0.853266666667     0.646733333333     0.182800000000     0          
O        O      0.873733333333     0.626266666667     0.801100000000     0          
O        O      0.885800000000     0.614200000000     0.482000000000     0          
O        O      0.916666666667     0.583333333333     0.416100000000     0          
O        O      0.772766666667     0.501500000000     0.078800000000     0          
O        O      0.717166666667     0.511500000000     0.137400000000     0          
O        O      0.693400000000     0.535200000000     0.066400000000     0          
O        O      0.750000000000     0.583333333333     0.104600000000     0          
O        O      0.886166666667     0.552833333333     0.537700000000     0          
O        O      0.834333333333     0.501000000000     0.755800000000     0          
O        O      0.916666666667     0.521333333333     0.736000000000     0          
O        O      0.853266666667     0.519933333333     0.682800000000     0          
O        O      0.873733333333     0.540400000000     0.301100000000     0          
O        O      0.885800000000     0.552466666667     0.982000000000     0          
O        O      0.916666666667     0.583333333333     0.916100000000     0          
O        O      0.998500000000     0.439433333333     0.578800000000     0          
O        O      0.988500000000     0.383833333333     0.637400000000     0          
O        O      0.964800000000     0.360066666667     0.566400000000     0          
O        O      0.947166666667     0.552833333333     0.037700000000     0          
O        O      0.999000000000     0.501000000000     0.255800000000     0          
O        O      0.978666666667     0.583333333333     0.236000000000     0          
O        O      0.980066666667     0.519933333333     0.182800000000     0          
O        O      0.959600000000     0.540400000000     0.801100000000     0          
O        O      0.947533333333     0.552466666667     0.482000000000     0          
O        O      0.727233333333     0.665166666667     0.078800000000     0          
O        O      0.782833333333     0.655166666667     0.137400000000     0          
O        O      0.806600000000     0.631466666667     0.066400000000     0          
O        O      0.947166666667     0.613833333333     0.537700000000     0          
O        O      0.999000000000     0.665666666667     0.755800000000     0          
O        O      0.916666666667     0.645333333333     0.736000000000     0          
O        O      0.980066666667     0.646733333333     0.682800000000     0          
O        O      0.959600000000     0.626266666667     0.301100000000     0          
O        O      0.947533333333     0.614200000000     0.982000000000     0          
O        O      0.998500000000     0.393900000000     0.078800000000     0          
O        O      0.988500000000     0.449500000000     0.137400000000     0          
O        O      0.964800000000     0.473266666667     0.066400000000     0          
O        O      0.916666666667     0.416666666667     0.104600000000     0          
O        O      0.978666666667     0.583333333333     0.736000000000     0          
O        O      0.772766666667     0.665166666667     0.578800000000     0          
O        O      0.717166666667     0.655166666667     0.637400000000     0          
O        O      0.693400000000     0.631466666667     0.566400000000     0          
O        O      0.750000000000     0.583333333333     0.604600000000     0          
O        O      0.916666666667     0.645333333333     0.236000000000     0          
O        O      0.834833333333     0.439433333333     0.078800000000     0          
O        O      0.844833333333     0.383833333333     0.137400000000     0          
O        O      0.868533333333     0.360066666667     0.066400000000     0          
O        O      0.854666666667     0.583333333333     0.736000000000     0          
O        O      0.727233333333     0.501500000000     0.578800000000     0          
O        O      0.782833333333     0.511500000000     0.637400000000     0          
O        O      0.806600000000     0.535200000000     0.566400000000     0          
O        O      0.916666666667     0.521333333333     0.236000000000     0          
O        O      0.831833333333     0.606100000000     0.421200000000     0          
O        O      0.821833333333     0.550500000000     0.362600000000     0          
O        O      0.798133333333     0.526733333333     0.433600000000     0          
O        O      0.750000000000     0.583333333333     0.395400000000     0          
O        O      0.812000000000     0.416666666667     0.764000000000     0          
O        O      0.893900000000     0.498500000000     0.921200000000     0          
O        O      0.949500000000     0.488500000000     0.862600000000     0          
O        O      0.973266666667     0.464800000000     0.933600000000     0          
O        O      0.916666666667     0.416666666667     0.895400000000     0          
O        O      0.750000000000     0.478666666667     0.264000000000     0          
O        O      0.668166666667     0.560566666667     0.421200000000     0          
O        O      0.678166666667     0.616166666667     0.362600000000     0          
O        O      0.701866666667     0.639933333333     0.433600000000     0          
O        O      0.688000000000     0.416666666667     0.764000000000     0          
O        O      0.939433333333     0.334833333333     0.921200000000     0          
O        O      0.883833333333     0.344833333333     0.862600000000     0          
O        O      0.860066666667     0.368533333333     0.933600000000     0          
O        O      0.750000000000     0.354666666667     0.264000000000     0          
O        O      0.668166666667     0.939433333333     0.921200000000     0          
O        O      0.678166666667     0.883833333333     0.862600000000     0          
O        O      0.701866666667     0.860066666667     0.933600000000     0          
O        O      0.750000000000     0.916666666667     0.895400000000     0          
O        O      0.719500000000     0.719500000000     0.462300000000     0          
O        O      0.666666666667     0.666666666667     0.500000000000     0          
O        O      0.667666666667     0.667666666667     0.244200000000     0          
O        O      0.688000000000     0.750000000000     0.264000000000     0          
O        O      0.686600000000     0.686600000000     0.317200000000     0          
O        O      0.707066666667     0.707066666667     0.698900000000     0          
O        O      0.719133333333     0.719133333333     0.018000000000     0          
O        O      0.750000000000     0.750000000000     0.083900000000     0          
O        O      0.893900000000     0.668166666667     0.421200000000     0          
O        O      0.949500000000     0.678166666667     0.362600000000     0          
O        O      0.973266666667     0.701866666667     0.433600000000     0          
O        O      0.916666666667     0.750000000000     0.395400000000     0          
O        O      0.780500000000     0.719500000000     0.962300000000     0          
O        O      0.833333333333     0.666666666667     0.000000000000     0          
O        O      0.832333333333     0.667666666667     0.744200000000     0          
O        O      0.750000000000     0.688000000000     0.764000000000     0          
O        O      0.813400000000     0.686600000000     0.817200000000     0          
O        O      0.792933333333     0.707066666667     0.198900000000     0          
O        O      0.780866666667     0.719133333333     0.518000000000     0          
O        O      0.750000000000     0.750000000000     0.583900000000     0          
O        O      0.831833333333     0.893900000000     0.921200000000     0          
O        O      0.821833333333     0.949500000000     0.862600000000     0          
O        O      0.798133333333     0.973266666667     0.933600000000     0          
O        O      0.780500000000     0.780500000000     0.462300000000     0          
O        O      0.833333333333     0.833333333333     0.500000000000     0          
O        O      0.832333333333     0.832333333333     0.244200000000     0          
O        O      0.812000000000     0.750000000000     0.264000000000     0          
O        O      0.813400000000     0.813400000000     0.317200000000     0          
O        O      0.792933333333     0.792933333333     0.698900000000     0          
O        O      0.780866666667     0.780866666667     0.018000000000     0          
O        O      0.939433333333     0.831833333333     0.421200000000     0          
O        O      0.883833333333     0.821833333333     0.362600000000     0          
O        O      0.860066666667     0.798133333333     0.433600000000     0          
O        O      0.719500000000     0.780500000000     0.962300000000     0          
O        O      0.666666666667     0.833333333333     0.000000000000     0          
O        O      0.667666666667     0.832333333333     0.744200000000     0          
O        O      0.750000000000     0.812000000000     0.764000000000     0          
O        O      0.686600000000     0.813400000000     0.817200000000     0          
O        O      0.707066666667     0.792933333333     0.198900000000     0          
O        O      0.719133333333     0.780866666667     0.518000000000     0          
O        O      0.834833333333     0.727233333333     0.578800000000     0          
O        O      0.844833333333     0.782833333333     0.637400000000     0          
O        O      0.868533333333     0.806600000000     0.566400000000     0          
O        O      0.916666666667     0.750000000000     0.604600000000     0          
O        O      0.886166666667     0.947166666667     0.037700000000     0          
O        O      0.834333333333     0.999000000000     0.255800000000     0          
O        O      0.854666666667     0.916666666667     0.236000000000     0          
O        O      0.853266666667     0.980066666667     0.182800000000     0          
O        O      0.873733333333     0.959600000000     0.801100000000     0          
O        O      0.885800000000     0.947533333333     0.482000000000     0          
O        O      0.916666666667     0.916666666667     0.416100000000     0          
O        O      0.772766666667     0.834833333333     0.078800000000     0          
O        O      0.717166666667     0.844833333333     0.137400000000     0          
O        O      0.693400000000     0.868533333333     0.066400000000     0          
O        O      0.750000000000     0.916666666667     0.104600000000     0          
O        O      0.886166666667     0.886166666667     0.537700000000     0          
O        O      0.834333333333     0.834333333333     0.755800000000     0          
O        O      0.916666666667     0.854666666667     0.736000000000     0          
O        O      0.853266666667     0.853266666667     0.682800000000     0          
O        O      0.873733333333     0.873733333333     0.301100000000     0          
O        O      0.885800000000     0.885800000000     0.982000000000     0          
O        O      0.916666666667     0.916666666667     0.916100000000     0          
O        O      0.998500000000     0.772766666667     0.578800000000     0          
O        O      0.988500000000     0.717166666667     0.637400000000     0          
O        O      0.964800000000     0.693400000000     0.566400000000     0          
O        O      0.947166666667     0.886166666667     0.037700000000     0          
O        O      0.999000000000     0.834333333333     0.255800000000     0          
O        O      0.978666666667     0.916666666667     0.236000000000     0          
O        O      0.980066666667     0.853266666667     0.182800000000     0          
O        O      0.959600000000     0.873733333333     0.801100000000     0          
O        O      0.947533333333     0.885800000000     0.482000000000     0          
O        O      0.727233333333     0.998500000000     0.078800000000     0          
O        O      0.782833333333     0.988500000000     0.137400000000     0          
O        O      0.806600000000     0.964800000000     0.066400000000     0          
O        O      0.947166666667     0.947166666667     0.537700000000     0          
O        O      0.999000000000     0.999000000000     0.755800000000     0          
O        O      0.916666666667     0.978666666667     0.736000000000     0          
O        O      0.980066666667     0.980066666667     0.682800000000     0          
O        O      0.959600000000     0.959600000000     0.301100000000     0          
O        O      0.947533333333     0.947533333333     0.982000000000     0          
O        O      0.998500000000     0.727233333333     0.078800000000     0          
O        O      0.988500000000     0.782833333333     0.137400000000     0          
O        O      0.964800000000     0.806600000000     0.066400000000     0          
O        O      0.916666666667     0.750000000000     0.104600000000     0          
O        O      0.978666666667     0.916666666667     0.736000000000     0          
O        O      0.772766666667     0.998500000000     0.578800000000     0          
O        O      0.717166666667     0.988500000000     0.637400000000     0          
O        O      0.693400000000     0.964800000000     0.566400000000     0          
O        O      0.750000000000     0.916666666667     0.604600000000     0          
O        O      0.916666666667     0.978666666667     0.236000000000     0          
O        O      0.834833333333     0.772766666667     0.078800000000     0          
O        O      0.844833333333     0.717166666667     0.137400000000     0          
O        O      0.868533333333     0.693400000000     0.066400000000     0          
O        O      0.854666666667     0.916666666667     0.736000000000     0          
O        O      0.727233333333     0.834833333333     0.578800000000     0          
O        O      0.782833333333     0.844833333333     0.637400000000     0          
O        O      0.806600000000     0.868533333333     0.566400000000     0          
O        O      0.916666666667     0.854666666667     0.236000000000     0          
O        O      0.831833333333     0.939433333333     0.421200000000     0          
O        O      0.821833333333     0.883833333333     0.362600000000     0          
O        O      0.798133333333     0.860066666667     0.433600000000     0          
O        O      0.750000000000     0.916666666667     0.395400000000     0          
O        O      0.812000000000     0.750000000000     0.764000000000     0          
O        O      0.893900000000     0.831833333333     0.921200000000     0          
O        O      0.949500000000     0.821833333333     0.862600000000     0          
O        O      0.973266666667     0.798133333333     0.933600000000     0          
O        O      0.916666666667     0.750000000000     0.895400000000     0          
O        O      0.750000000000     0.812000000000     0.264000000000     0          
O        O      0.668166666667     0.893900000000     0.421200000000     0          
O        O      0.678166666667     0.949500000000     0.362600000000     0          
O        O      0.701866666667     0.973266666667     0.433600000000     0          
O        O      0.688000000000     0.750000000000     0.764000000000     0          
O        O      0.939433333333     0.668166666667     0.921200000000     0          
O        O      0.883833333333     0.678166666667     0.862600000000     0          
O        O      0.860066666667     0.701866666667     0.933600000000     0          
O        O      0.750000000000     0.688000000000     0.264000000000     0          


