data_zeolite

_audit_creation_method RASPA-1.0
_audit_creation_date 2021-6-7
_audit_author_name ''

_cell_length_a    29.378
_cell_length_b    25.935
_cell_length_c    37.882
_cell_angle_alpha 90
_cell_angle_beta  90
_cell_angle_gamma 90
_cell_volume      28863

_symmetry_cell_setting          orthorhombic
_symmetry_space_group_name_Hall 'P 1'
_symmetry_space_group_name_H-M  'P 1'
_symmetry_Int_Tables_number     1

_symmetry_equiv_pos_as_xyz 'x,y,z'

loop_
_atom_site_label
_atom_site_type_symbol
_atom_site_fract_x
_atom_site_fract_y
_atom_site_fract_z
_atom_site_charge
O        O      0.280050000000     0.242233333333     0.295850000000     0          
O        O      0.200800000000     0.202300000000     0.278050000000     0          
O        O      0.143450000000     0.168766666667     0.229900000000     0          
O        O      0.138600000000     0.102500000000     0.177250000000     0          
O        O      0.292050000000     0.259566666667     0.362650000000     0          
O        O      0.234700000000     0.188533333333     0.342150000000     0          
O        O      0.227850000000     0.191066666667     0.212500000000     0          
O        O      0.326850000000     0.324333333333     0.316150000000     0          
O        O      0.079100000000     0.098800000000     0.228950000000     0          
T        Si     0.315600000000     0.264866666667     0.324350000000     0          
T        Si     0.246450000000     0.193600000000     0.300750000000     0          
T        Si     0.109600000000     0.136466666667     0.204850000000     0          
T        Si     0.185550000000     0.206933333333     0.237300000000     0          
T        Si     0.000000000000     0.276000000000     0.125000000000     0          
O        O      0.469950000000     0.257766666667     0.045850000000     0          
O        O      0.049200000000     0.297700000000     0.028050000000     0          
O        O      0.106550000000     0.331233333333     0.479900000000     0          
O        O      0.111400000000     0.064166666667     0.427250000000     0          
O        O      0.457950000000     0.240433333333     0.112650000000     0          
O        O      0.015300000000     0.311466666667     0.092150000000     0          
O        O      0.022150000000     0.308933333333     0.462500000000     0          
O        O      0.423150000000     0.175666666667     0.066150000000     0          
O        O      0.170900000000     0.067866666667     0.478950000000     0          
T        Si     0.434400000000     0.235133333333     0.074350000000     0          
T        Si     0.003550000000     0.306400000000     0.050750000000     0          
T        Si     0.140400000000     0.030200000000     0.454850000000     0          
T        Si     0.064450000000     0.293066666667     0.487300000000     0          
T        Si     0.250000000000     0.224000000000     0.375000000000     0          
O        O      0.030050000000     0.257766666667     0.204150000000     0          
O        O      0.450800000000     0.297700000000     0.221950000000     0          
O        O      0.393450000000     0.331233333333     0.270100000000     0          
O        O      0.388600000000     0.064166666667     0.322750000000     0          
O        O      0.042050000000     0.240433333333     0.137350000000     0          
O        O      0.484700000000     0.311466666667     0.157850000000     0          
O        O      0.477850000000     0.308933333333     0.287500000000     0          
O        O      0.076850000000     0.175666666667     0.183850000000     0          
O        O      0.329100000000     0.067866666667     0.271050000000     0          
T        Si     0.065600000000     0.235133333333     0.175650000000     0          
T        Si     0.496450000000     0.306400000000     0.199250000000     0          
T        Si     0.359600000000     0.030200000000     0.295150000000     0          
T        Si     0.435550000000     0.293066666667     0.262700000000     0          
O        O      0.219950000000     0.242233333333     0.454150000000     0          
O        O      0.299200000000     0.202300000000     0.471950000000     0          
O        O      0.356550000000     0.168766666667     0.020100000000     0          
O        O      0.361400000000     0.102500000000     0.072750000000     0          
O        O      0.207950000000     0.259566666667     0.387350000000     0          
O        O      0.265300000000     0.188533333333     0.407850000000     0          
O        O      0.272150000000     0.191066666667     0.037500000000     0          
O        O      0.173150000000     0.324333333333     0.433850000000     0          
O        O      0.420900000000     0.098800000000     0.021050000000     0          
T        Si     0.184400000000     0.264866666667     0.425650000000     0          
T        Si     0.253550000000     0.193600000000     0.449250000000     0          
T        Si     0.390400000000     0.136466666667     0.045150000000     0          
T        Si     0.314450000000     0.206933333333     0.012700000000     0          
O        O      0.219950000000     0.091100000000     0.204150000000     0          
O        O      0.299200000000     0.131033333333     0.221950000000     0          
O        O      0.356550000000     0.164566666667     0.270100000000     0          
O        O      0.361400000000     0.230833333333     0.322750000000     0          
O        O      0.207950000000     0.073766666667     0.137350000000     0          
O        O      0.265300000000     0.144800000000     0.157850000000     0          
O        O      0.272150000000     0.142266666667     0.287500000000     0          
O        O      0.173150000000     0.009000000000     0.183850000000     0          
O        O      0.420900000000     0.234533333333     0.271050000000     0          
T        Si     0.184400000000     0.068466666667     0.175650000000     0          
T        Si     0.253550000000     0.139733333333     0.199250000000     0          
T        Si     0.390400000000     0.196866666667     0.295150000000     0          
T        Si     0.314450000000     0.126400000000     0.262700000000     0          
T        Si     0.000000000000     0.057333333333     0.375000000000     0          
O        O      0.030050000000     0.075566666667     0.454150000000     0          
O        O      0.450800000000     0.035633333333     0.471950000000     0          
O        O      0.393450000000     0.002100000000     0.020100000000     0          
O        O      0.388600000000     0.269166666667     0.072750000000     0          
O        O      0.042050000000     0.092900000000     0.387350000000     0          
O        O      0.484700000000     0.021866666667     0.407850000000     0          
O        O      0.477850000000     0.024400000000     0.037500000000     0          
O        O      0.076850000000     0.157666666667     0.433850000000     0          
O        O      0.329100000000     0.265466666667     0.021050000000     0          
T        Si     0.065600000000     0.098200000000     0.425650000000     0          
T        Si     0.496450000000     0.026933333333     0.449250000000     0          
T        Si     0.359600000000     0.303133333333     0.045150000000     0          
T        Si     0.435550000000     0.040266666667     0.012700000000     0          
T        Si     0.250000000000     0.109333333333     0.125000000000     0          
O        O      0.469950000000     0.075566666667     0.295850000000     0          
O        O      0.049200000000     0.035633333333     0.278050000000     0          
O        O      0.106550000000     0.002100000000     0.229900000000     0          
O        O      0.111400000000     0.269166666667     0.177250000000     0          
O        O      0.457950000000     0.092900000000     0.362650000000     0          
O        O      0.015300000000     0.021866666667     0.342150000000     0          
O        O      0.022150000000     0.024400000000     0.212500000000     0          
O        O      0.423150000000     0.157666666667     0.316150000000     0          
O        O      0.170900000000     0.265466666667     0.228950000000     0          
T        Si     0.434400000000     0.098200000000     0.324350000000     0          
T        Si     0.003550000000     0.026933333333     0.300750000000     0          
T        Si     0.140400000000     0.303133333333     0.204850000000     0          
T        Si     0.064450000000     0.040266666667     0.237300000000     0          
O        O      0.280050000000     0.091100000000     0.045850000000     0          
O        O      0.200800000000     0.131033333333     0.028050000000     0          
O        O      0.143450000000     0.164566666667     0.479900000000     0          
O        O      0.138600000000     0.230833333333     0.427250000000     0          
O        O      0.292050000000     0.073766666667     0.112650000000     0          
O        O      0.234700000000     0.144800000000     0.092150000000     0          
O        O      0.227850000000     0.142266666667     0.462500000000     0          
O        O      0.326850000000     0.009000000000     0.066150000000     0          
O        O      0.079100000000     0.234533333333     0.478950000000     0          
T        Si     0.315600000000     0.068466666667     0.074350000000     0          
T        Si     0.246450000000     0.139733333333     0.050750000000     0          
T        Si     0.109600000000     0.196866666667     0.454850000000     0          
T        Si     0.185550000000     0.126400000000     0.487300000000     0          
O        O      0.280050000000     0.242233333333     0.795850000000     0          
O        O      0.200800000000     0.202300000000     0.778050000000     0          
O        O      0.143450000000     0.168766666667     0.729900000000     0          
O        O      0.138600000000     0.102500000000     0.677250000000     0          
O        O      0.292050000000     0.259566666667     0.862650000000     0          
O        O      0.234700000000     0.188533333333     0.842150000000     0          
O        O      0.227850000000     0.191066666667     0.712500000000     0          
O        O      0.326850000000     0.324333333333     0.816150000000     0          
O        O      0.079100000000     0.098800000000     0.728950000000     0          
T        Si     0.315600000000     0.264866666667     0.824350000000     0          
T        Si     0.246450000000     0.193600000000     0.800750000000     0          
T        Si     0.109600000000     0.136466666667     0.704850000000     0          
T        Si     0.185550000000     0.206933333333     0.737300000000     0          
T        Si     0.000000000000     0.276000000000     0.625000000000     0          
O        O      0.469950000000     0.257766666667     0.545850000000     0          
O        O      0.049200000000     0.297700000000     0.528050000000     0          
O        O      0.106550000000     0.331233333333     0.979900000000     0          
O        O      0.111400000000     0.064166666667     0.927250000000     0          
O        O      0.457950000000     0.240433333333     0.612650000000     0          
O        O      0.015300000000     0.311466666667     0.592150000000     0          
O        O      0.022150000000     0.308933333333     0.962500000000     0          
O        O      0.423150000000     0.175666666667     0.566150000000     0          
O        O      0.170900000000     0.067866666667     0.978950000000     0          
T        Si     0.434400000000     0.235133333333     0.574350000000     0          
T        Si     0.003550000000     0.306400000000     0.550750000000     0          
T        Si     0.140400000000     0.030200000000     0.954850000000     0          
T        Si     0.064450000000     0.293066666667     0.987300000000     0          
T        Si     0.250000000000     0.224000000000     0.875000000000     0          
O        O      0.030050000000     0.257766666667     0.704150000000     0          
O        O      0.450800000000     0.297700000000     0.721950000000     0          
O        O      0.393450000000     0.331233333333     0.770100000000     0          
O        O      0.388600000000     0.064166666667     0.822750000000     0          
O        O      0.042050000000     0.240433333333     0.637350000000     0          
O        O      0.484700000000     0.311466666667     0.657850000000     0          
O        O      0.477850000000     0.308933333333     0.787500000000     0          
O        O      0.076850000000     0.175666666667     0.683850000000     0          
O        O      0.329100000000     0.067866666667     0.771050000000     0          
T        Si     0.065600000000     0.235133333333     0.675650000000     0          
T        Si     0.496450000000     0.306400000000     0.699250000000     0          
T        Si     0.359600000000     0.030200000000     0.795150000000     0          
T        Si     0.435550000000     0.293066666667     0.762700000000     0          
O        O      0.219950000000     0.242233333333     0.954150000000     0          
O        O      0.299200000000     0.202300000000     0.971950000000     0          
O        O      0.356550000000     0.168766666667     0.520100000000     0          
O        O      0.361400000000     0.102500000000     0.572750000000     0          
O        O      0.207950000000     0.259566666667     0.887350000000     0          
O        O      0.265300000000     0.188533333333     0.907850000000     0          
O        O      0.272150000000     0.191066666667     0.537500000000     0          
O        O      0.173150000000     0.324333333333     0.933850000000     0          
O        O      0.420900000000     0.098800000000     0.521050000000     0          
T        Si     0.184400000000     0.264866666667     0.925650000000     0          
T        Si     0.253550000000     0.193600000000     0.949250000000     0          
T        Si     0.390400000000     0.136466666667     0.545150000000     0          
T        Si     0.314450000000     0.206933333333     0.512700000000     0          
O        O      0.219950000000     0.091100000000     0.704150000000     0          
O        O      0.299200000000     0.131033333333     0.721950000000     0          
O        O      0.356550000000     0.164566666667     0.770100000000     0          
O        O      0.361400000000     0.230833333333     0.822750000000     0          
O        O      0.207950000000     0.073766666667     0.637350000000     0          
O        O      0.265300000000     0.144800000000     0.657850000000     0          
O        O      0.272150000000     0.142266666667     0.787500000000     0          
O        O      0.173150000000     0.009000000000     0.683850000000     0          
O        O      0.420900000000     0.234533333333     0.771050000000     0          
T        Si     0.184400000000     0.068466666667     0.675650000000     0          
T        Si     0.253550000000     0.139733333333     0.699250000000     0          
T        Si     0.390400000000     0.196866666667     0.795150000000     0          
T        Si     0.314450000000     0.126400000000     0.762700000000     0          
T        Si     0.000000000000     0.057333333333     0.875000000000     0          
O        O      0.030050000000     0.075566666667     0.954150000000     0          
O        O      0.450800000000     0.035633333333     0.971950000000     0          
O        O      0.393450000000     0.002100000000     0.520100000000     0          
O        O      0.388600000000     0.269166666667     0.572750000000     0          
O        O      0.042050000000     0.092900000000     0.887350000000     0          
O        O      0.484700000000     0.021866666667     0.907850000000     0          
O        O      0.477850000000     0.024400000000     0.537500000000     0          
O        O      0.076850000000     0.157666666667     0.933850000000     0          
O        O      0.329100000000     0.265466666667     0.521050000000     0          
T        Si     0.065600000000     0.098200000000     0.925650000000     0          
T        Si     0.496450000000     0.026933333333     0.949250000000     0          
T        Si     0.359600000000     0.303133333333     0.545150000000     0          
T        Si     0.435550000000     0.040266666667     0.512700000000     0          
T        Si     0.250000000000     0.109333333333     0.625000000000     0          
O        O      0.469950000000     0.075566666667     0.795850000000     0          
O        O      0.049200000000     0.035633333333     0.778050000000     0          
O        O      0.106550000000     0.002100000000     0.729900000000     0          
O        O      0.111400000000     0.269166666667     0.677250000000     0          
O        O      0.457950000000     0.092900000000     0.862650000000     0          
O        O      0.015300000000     0.021866666667     0.842150000000     0          
O        O      0.022150000000     0.024400000000     0.712500000000     0          
O        O      0.423150000000     0.157666666667     0.816150000000     0          
O        O      0.170900000000     0.265466666667     0.728950000000     0          
T        Si     0.434400000000     0.098200000000     0.824350000000     0          
T        Si     0.003550000000     0.026933333333     0.800750000000     0          
T        Si     0.140400000000     0.303133333333     0.704850000000     0          
T        Si     0.064450000000     0.040266666667     0.737300000000     0          
O        O      0.280050000000     0.091100000000     0.545850000000     0          
O        O      0.200800000000     0.131033333333     0.528050000000     0          
O        O      0.143450000000     0.164566666667     0.979900000000     0          
O        O      0.138600000000     0.230833333333     0.927250000000     0          
O        O      0.292050000000     0.073766666667     0.612650000000     0          
O        O      0.234700000000     0.144800000000     0.592150000000     0          
O        O      0.227850000000     0.142266666667     0.962500000000     0          
O        O      0.326850000000     0.009000000000     0.566150000000     0          
O        O      0.079100000000     0.234533333333     0.978950000000     0          
T        Si     0.315600000000     0.068466666667     0.574350000000     0          
T        Si     0.246450000000     0.139733333333     0.550750000000     0          
T        Si     0.109600000000     0.196866666667     0.954850000000     0          
T        Si     0.185550000000     0.126400000000     0.987300000000     0          
O        O      0.280050000000     0.575566666667     0.295850000000     0          
O        O      0.200800000000     0.535633333333     0.278050000000     0          
O        O      0.143450000000     0.502100000000     0.229900000000     0          
O        O      0.138600000000     0.435833333333     0.177250000000     0          
O        O      0.292050000000     0.592900000000     0.362650000000     0          
O        O      0.234700000000     0.521866666667     0.342150000000     0          
O        O      0.227850000000     0.524400000000     0.212500000000     0          
O        O      0.326850000000     0.657666666667     0.316150000000     0          
O        O      0.079100000000     0.432133333333     0.228950000000     0          
T        Si     0.315600000000     0.598200000000     0.324350000000     0          
T        Si     0.246450000000     0.526933333333     0.300750000000     0          
T        Si     0.109600000000     0.469800000000     0.204850000000     0          
T        Si     0.185550000000     0.540266666667     0.237300000000     0          
T        Si     0.000000000000     0.609333333333     0.125000000000     0          
O        O      0.469950000000     0.591100000000     0.045850000000     0          
O        O      0.049200000000     0.631033333333     0.028050000000     0          
O        O      0.106550000000     0.664566666667     0.479900000000     0          
O        O      0.111400000000     0.397500000000     0.427250000000     0          
O        O      0.457950000000     0.573766666667     0.112650000000     0          
O        O      0.015300000000     0.644800000000     0.092150000000     0          
O        O      0.022150000000     0.642266666667     0.462500000000     0          
O        O      0.423150000000     0.509000000000     0.066150000000     0          
O        O      0.170900000000     0.401200000000     0.478950000000     0          
T        Si     0.434400000000     0.568466666667     0.074350000000     0          
T        Si     0.003550000000     0.639733333333     0.050750000000     0          
T        Si     0.140400000000     0.363533333333     0.454850000000     0          
T        Si     0.064450000000     0.626400000000     0.487300000000     0          
T        Si     0.250000000000     0.557333333333     0.375000000000     0          
O        O      0.030050000000     0.591100000000     0.204150000000     0          
O        O      0.450800000000     0.631033333333     0.221950000000     0          
O        O      0.393450000000     0.664566666667     0.270100000000     0          
O        O      0.388600000000     0.397500000000     0.322750000000     0          
O        O      0.042050000000     0.573766666667     0.137350000000     0          
O        O      0.484700000000     0.644800000000     0.157850000000     0          
O        O      0.477850000000     0.642266666667     0.287500000000     0          
O        O      0.076850000000     0.509000000000     0.183850000000     0          
O        O      0.329100000000     0.401200000000     0.271050000000     0          
T        Si     0.065600000000     0.568466666667     0.175650000000     0          
T        Si     0.496450000000     0.639733333333     0.199250000000     0          
T        Si     0.359600000000     0.363533333333     0.295150000000     0          
T        Si     0.435550000000     0.626400000000     0.262700000000     0          
O        O      0.219950000000     0.575566666667     0.454150000000     0          
O        O      0.299200000000     0.535633333333     0.471950000000     0          
O        O      0.356550000000     0.502100000000     0.020100000000     0          
O        O      0.361400000000     0.435833333333     0.072750000000     0          
O        O      0.207950000000     0.592900000000     0.387350000000     0          
O        O      0.265300000000     0.521866666667     0.407850000000     0          
O        O      0.272150000000     0.524400000000     0.037500000000     0          
O        O      0.173150000000     0.657666666667     0.433850000000     0          
O        O      0.420900000000     0.432133333333     0.021050000000     0          
T        Si     0.184400000000     0.598200000000     0.425650000000     0          
T        Si     0.253550000000     0.526933333333     0.449250000000     0          
T        Si     0.390400000000     0.469800000000     0.045150000000     0          
T        Si     0.314450000000     0.540266666667     0.012700000000     0          
O        O      0.219950000000     0.424433333333     0.204150000000     0          
O        O      0.299200000000     0.464366666667     0.221950000000     0          
O        O      0.356550000000     0.497900000000     0.270100000000     0          
O        O      0.361400000000     0.564166666667     0.322750000000     0          
O        O      0.207950000000     0.407100000000     0.137350000000     0          
O        O      0.265300000000     0.478133333333     0.157850000000     0          
O        O      0.272150000000     0.475600000000     0.287500000000     0          
O        O      0.173150000000     0.342333333333     0.183850000000     0          
O        O      0.420900000000     0.567866666667     0.271050000000     0          
T        Si     0.184400000000     0.401800000000     0.175650000000     0          
T        Si     0.253550000000     0.473066666667     0.199250000000     0          
T        Si     0.390400000000     0.530200000000     0.295150000000     0          
T        Si     0.314450000000     0.459733333333     0.262700000000     0          
T        Si     0.000000000000     0.390666666667     0.375000000000     0          
O        O      0.030050000000     0.408900000000     0.454150000000     0          
O        O      0.450800000000     0.368966666667     0.471950000000     0          
O        O      0.393450000000     0.335433333333     0.020100000000     0          
O        O      0.388600000000     0.602500000000     0.072750000000     0          
O        O      0.042050000000     0.426233333333     0.387350000000     0          
O        O      0.484700000000     0.355200000000     0.407850000000     0          
O        O      0.477850000000     0.357733333333     0.037500000000     0          
O        O      0.076850000000     0.491000000000     0.433850000000     0          
O        O      0.329100000000     0.598800000000     0.021050000000     0          
T        Si     0.065600000000     0.431533333333     0.425650000000     0          
T        Si     0.496450000000     0.360266666667     0.449250000000     0          
T        Si     0.359600000000     0.636466666667     0.045150000000     0          
T        Si     0.435550000000     0.373600000000     0.012700000000     0          
T        Si     0.250000000000     0.442666666667     0.125000000000     0          
O        O      0.469950000000     0.408900000000     0.295850000000     0          
O        O      0.049200000000     0.368966666667     0.278050000000     0          
O        O      0.106550000000     0.335433333333     0.229900000000     0          
O        O      0.111400000000     0.602500000000     0.177250000000     0          
O        O      0.457950000000     0.426233333333     0.362650000000     0          
O        O      0.015300000000     0.355200000000     0.342150000000     0          
O        O      0.022150000000     0.357733333333     0.212500000000     0          
O        O      0.423150000000     0.491000000000     0.316150000000     0          
O        O      0.170900000000     0.598800000000     0.228950000000     0          
T        Si     0.434400000000     0.431533333333     0.324350000000     0          
T        Si     0.003550000000     0.360266666667     0.300750000000     0          
T        Si     0.140400000000     0.636466666667     0.204850000000     0          
T        Si     0.064450000000     0.373600000000     0.237300000000     0          
O        O      0.280050000000     0.424433333333     0.045850000000     0          
O        O      0.200800000000     0.464366666667     0.028050000000     0          
O        O      0.143450000000     0.497900000000     0.479900000000     0          
O        O      0.138600000000     0.564166666667     0.427250000000     0          
O        O      0.292050000000     0.407100000000     0.112650000000     0          
O        O      0.234700000000     0.478133333333     0.092150000000     0          
O        O      0.227850000000     0.475600000000     0.462500000000     0          
O        O      0.326850000000     0.342333333333     0.066150000000     0          
O        O      0.079100000000     0.567866666667     0.478950000000     0          
T        Si     0.315600000000     0.401800000000     0.074350000000     0          
T        Si     0.246450000000     0.473066666667     0.050750000000     0          
T        Si     0.109600000000     0.530200000000     0.454850000000     0          
T        Si     0.185550000000     0.459733333333     0.487300000000     0          
O        O      0.280050000000     0.575566666667     0.795850000000     0          
O        O      0.200800000000     0.535633333333     0.778050000000     0          
O        O      0.143450000000     0.502100000000     0.729900000000     0          
O        O      0.138600000000     0.435833333333     0.677250000000     0          
O        O      0.292050000000     0.592900000000     0.862650000000     0          
O        O      0.234700000000     0.521866666667     0.842150000000     0          
O        O      0.227850000000     0.524400000000     0.712500000000     0          
O        O      0.326850000000     0.657666666667     0.816150000000     0          
O        O      0.079100000000     0.432133333333     0.728950000000     0          
T        Si     0.315600000000     0.598200000000     0.824350000000     0          
T        Si     0.246450000000     0.526933333333     0.800750000000     0          
T        Si     0.109600000000     0.469800000000     0.704850000000     0          
T        Si     0.185550000000     0.540266666667     0.737300000000     0          
T        Si     0.000000000000     0.609333333333     0.625000000000     0          
O        O      0.469950000000     0.591100000000     0.545850000000     0          
O        O      0.049200000000     0.631033333333     0.528050000000     0          
O        O      0.106550000000     0.664566666667     0.979900000000     0          
O        O      0.111400000000     0.397500000000     0.927250000000     0          
O        O      0.457950000000     0.573766666667     0.612650000000     0          
O        O      0.015300000000     0.644800000000     0.592150000000     0          
O        O      0.022150000000     0.642266666667     0.962500000000     0          
O        O      0.423150000000     0.509000000000     0.566150000000     0          
O        O      0.170900000000     0.401200000000     0.978950000000     0          
T        Si     0.434400000000     0.568466666667     0.574350000000     0          
T        Si     0.003550000000     0.639733333333     0.550750000000     0          
T        Si     0.140400000000     0.363533333333     0.954850000000     0          
T        Si     0.064450000000     0.626400000000     0.987300000000     0          
T        Si     0.250000000000     0.557333333333     0.875000000000     0          
O        O      0.030050000000     0.591100000000     0.704150000000     0          
O        O      0.450800000000     0.631033333333     0.721950000000     0          
O        O      0.393450000000     0.664566666667     0.770100000000     0          
O        O      0.388600000000     0.397500000000     0.822750000000     0          
O        O      0.042050000000     0.573766666667     0.637350000000     0          
O        O      0.484700000000     0.644800000000     0.657850000000     0          
O        O      0.477850000000     0.642266666667     0.787500000000     0          
O        O      0.076850000000     0.509000000000     0.683850000000     0          
O        O      0.329100000000     0.401200000000     0.771050000000     0          
T        Si     0.065600000000     0.568466666667     0.675650000000     0          
T        Si     0.496450000000     0.639733333333     0.699250000000     0          
T        Si     0.359600000000     0.363533333333     0.795150000000     0          
T        Si     0.435550000000     0.626400000000     0.762700000000     0          
O        O      0.219950000000     0.575566666667     0.954150000000     0          
O        O      0.299200000000     0.535633333333     0.971950000000     0          
O        O      0.356550000000     0.502100000000     0.520100000000     0          
O        O      0.361400000000     0.435833333333     0.572750000000     0          
O        O      0.207950000000     0.592900000000     0.887350000000     0          
O        O      0.265300000000     0.521866666667     0.907850000000     0          
O        O      0.272150000000     0.524400000000     0.537500000000     0          
O        O      0.173150000000     0.657666666667     0.933850000000     0          
O        O      0.420900000000     0.432133333333     0.521050000000     0          
T        Si     0.184400000000     0.598200000000     0.925650000000     0          
T        Si     0.253550000000     0.526933333333     0.949250000000     0          
T        Si     0.390400000000     0.469800000000     0.545150000000     0          
T        Si     0.314450000000     0.540266666667     0.512700000000     0          
O        O      0.219950000000     0.424433333333     0.704150000000     0          
O        O      0.299200000000     0.464366666667     0.721950000000     0          
O        O      0.356550000000     0.497900000000     0.770100000000     0          
O        O      0.361400000000     0.564166666667     0.822750000000     0          
O        O      0.207950000000     0.407100000000     0.637350000000     0          
O        O      0.265300000000     0.478133333333     0.657850000000     0          
O        O      0.272150000000     0.475600000000     0.787500000000     0          
O        O      0.173150000000     0.342333333333     0.683850000000     0          
O        O      0.420900000000     0.567866666667     0.771050000000     0          
T        Si     0.184400000000     0.401800000000     0.675650000000     0          
T        Si     0.253550000000     0.473066666667     0.699250000000     0          
T        Si     0.390400000000     0.530200000000     0.795150000000     0          
T        Si     0.314450000000     0.459733333333     0.762700000000     0          
T        Si     0.000000000000     0.390666666667     0.875000000000     0          
O        O      0.030050000000     0.408900000000     0.954150000000     0          
O        O      0.450800000000     0.368966666667     0.971950000000     0          
O        O      0.393450000000     0.335433333333     0.520100000000     0          
O        O      0.388600000000     0.602500000000     0.572750000000     0          
O        O      0.042050000000     0.426233333333     0.887350000000     0          
O        O      0.484700000000     0.355200000000     0.907850000000     0          
O        O      0.477850000000     0.357733333333     0.537500000000     0          
O        O      0.076850000000     0.491000000000     0.933850000000     0          
O        O      0.329100000000     0.598800000000     0.521050000000     0          
T        Si     0.065600000000     0.431533333333     0.925650000000     0          
T        Si     0.496450000000     0.360266666667     0.949250000000     0          
T        Si     0.359600000000     0.636466666667     0.545150000000     0          
T        Si     0.435550000000     0.373600000000     0.512700000000     0          
T        Si     0.250000000000     0.442666666667     0.625000000000     0          
O        O      0.469950000000     0.408900000000     0.795850000000     0          
O        O      0.049200000000     0.368966666667     0.778050000000     0          
O        O      0.106550000000     0.335433333333     0.729900000000     0          
O        O      0.111400000000     0.602500000000     0.677250000000     0          
O        O      0.457950000000     0.426233333333     0.862650000000     0          
O        O      0.015300000000     0.355200000000     0.842150000000     0          
O        O      0.022150000000     0.357733333333     0.712500000000     0          
O        O      0.423150000000     0.491000000000     0.816150000000     0          
O        O      0.170900000000     0.598800000000     0.728950000000     0          
T        Si     0.434400000000     0.431533333333     0.824350000000     0          
T        Si     0.003550000000     0.360266666667     0.800750000000     0          
T        Si     0.140400000000     0.636466666667     0.704850000000     0          
T        Si     0.064450000000     0.373600000000     0.737300000000     0          
O        O      0.280050000000     0.424433333333     0.545850000000     0          
O        O      0.200800000000     0.464366666667     0.528050000000     0          
O        O      0.143450000000     0.497900000000     0.979900000000     0          
O        O      0.138600000000     0.564166666667     0.927250000000     0          
O        O      0.292050000000     0.407100000000     0.612650000000     0          
O        O      0.234700000000     0.478133333333     0.592150000000     0          
O        O      0.227850000000     0.475600000000     0.962500000000     0          
O        O      0.326850000000     0.342333333333     0.566150000000     0          
O        O      0.079100000000     0.567866666667     0.978950000000     0          
T        Si     0.315600000000     0.401800000000     0.574350000000     0          
T        Si     0.246450000000     0.473066666667     0.550750000000     0          
T        Si     0.109600000000     0.530200000000     0.954850000000     0          
T        Si     0.185550000000     0.459733333333     0.987300000000     0          
O        O      0.280050000000     0.908900000000     0.295850000000     0          
O        O      0.200800000000     0.868966666667     0.278050000000     0          
O        O      0.143450000000     0.835433333333     0.229900000000     0          
O        O      0.138600000000     0.769166666667     0.177250000000     0          
O        O      0.292050000000     0.926233333333     0.362650000000     0          
O        O      0.234700000000     0.855200000000     0.342150000000     0          
O        O      0.227850000000     0.857733333333     0.212500000000     0          
O        O      0.326850000000     0.991000000000     0.316150000000     0          
O        O      0.079100000000     0.765466666667     0.228950000000     0          
T        Si     0.315600000000     0.931533333333     0.324350000000     0          
T        Si     0.246450000000     0.860266666667     0.300750000000     0          
T        Si     0.109600000000     0.803133333333     0.204850000000     0          
T        Si     0.185550000000     0.873600000000     0.237300000000     0          
T        Si     0.000000000000     0.942666666667     0.125000000000     0          
O        O      0.469950000000     0.924433333333     0.045850000000     0          
O        O      0.049200000000     0.964366666667     0.028050000000     0          
O        O      0.106550000000     0.997900000000     0.479900000000     0          
O        O      0.111400000000     0.730833333333     0.427250000000     0          
O        O      0.457950000000     0.907100000000     0.112650000000     0          
O        O      0.015300000000     0.978133333333     0.092150000000     0          
O        O      0.022150000000     0.975600000000     0.462500000000     0          
O        O      0.423150000000     0.842333333333     0.066150000000     0          
O        O      0.170900000000     0.734533333333     0.478950000000     0          
T        Si     0.434400000000     0.901800000000     0.074350000000     0          
T        Si     0.003550000000     0.973066666667     0.050750000000     0          
T        Si     0.140400000000     0.696866666667     0.454850000000     0          
T        Si     0.064450000000     0.959733333333     0.487300000000     0          
T        Si     0.250000000000     0.890666666667     0.375000000000     0          
O        O      0.030050000000     0.924433333333     0.204150000000     0          
O        O      0.450800000000     0.964366666667     0.221950000000     0          
O        O      0.393450000000     0.997900000000     0.270100000000     0          
O        O      0.388600000000     0.730833333333     0.322750000000     0          
O        O      0.042050000000     0.907100000000     0.137350000000     0          
O        O      0.484700000000     0.978133333333     0.157850000000     0          
O        O      0.477850000000     0.975600000000     0.287500000000     0          
O        O      0.076850000000     0.842333333333     0.183850000000     0          
O        O      0.329100000000     0.734533333333     0.271050000000     0          
T        Si     0.065600000000     0.901800000000     0.175650000000     0          
T        Si     0.496450000000     0.973066666667     0.199250000000     0          
T        Si     0.359600000000     0.696866666667     0.295150000000     0          
T        Si     0.435550000000     0.959733333333     0.262700000000     0          
O        O      0.219950000000     0.908900000000     0.454150000000     0          
O        O      0.299200000000     0.868966666667     0.471950000000     0          
O        O      0.356550000000     0.835433333333     0.020100000000     0          
O        O      0.361400000000     0.769166666667     0.072750000000     0          
O        O      0.207950000000     0.926233333333     0.387350000000     0          
O        O      0.265300000000     0.855200000000     0.407850000000     0          
O        O      0.272150000000     0.857733333333     0.037500000000     0          
O        O      0.173150000000     0.991000000000     0.433850000000     0          
O        O      0.420900000000     0.765466666667     0.021050000000     0          
T        Si     0.184400000000     0.931533333333     0.425650000000     0          
T        Si     0.253550000000     0.860266666667     0.449250000000     0          
T        Si     0.390400000000     0.803133333333     0.045150000000     0          
T        Si     0.314450000000     0.873600000000     0.012700000000     0          
O        O      0.219950000000     0.757766666667     0.204150000000     0          
O        O      0.299200000000     0.797700000000     0.221950000000     0          
O        O      0.356550000000     0.831233333333     0.270100000000     0          
O        O      0.361400000000     0.897500000000     0.322750000000     0          
O        O      0.207950000000     0.740433333333     0.137350000000     0          
O        O      0.265300000000     0.811466666667     0.157850000000     0          
O        O      0.272150000000     0.808933333333     0.287500000000     0          
O        O      0.173150000000     0.675666666667     0.183850000000     0          
O        O      0.420900000000     0.901200000000     0.271050000000     0          
T        Si     0.184400000000     0.735133333333     0.175650000000     0          
T        Si     0.253550000000     0.806400000000     0.199250000000     0          
T        Si     0.390400000000     0.863533333333     0.295150000000     0          
T        Si     0.314450000000     0.793066666667     0.262700000000     0          
T        Si     0.000000000000     0.724000000000     0.375000000000     0          
O        O      0.030050000000     0.742233333333     0.454150000000     0          
O        O      0.450800000000     0.702300000000     0.471950000000     0          
O        O      0.393450000000     0.668766666667     0.020100000000     0          
O        O      0.388600000000     0.935833333333     0.072750000000     0          
O        O      0.042050000000     0.759566666667     0.387350000000     0          
O        O      0.484700000000     0.688533333333     0.407850000000     0          
O        O      0.477850000000     0.691066666667     0.037500000000     0          
O        O      0.076850000000     0.824333333333     0.433850000000     0          
O        O      0.329100000000     0.932133333333     0.021050000000     0          
T        Si     0.065600000000     0.764866666667     0.425650000000     0          
T        Si     0.496450000000     0.693600000000     0.449250000000     0          
T        Si     0.359600000000     0.969800000000     0.045150000000     0          
T        Si     0.435550000000     0.706933333333     0.012700000000     0          
T        Si     0.250000000000     0.776000000000     0.125000000000     0          
O        O      0.469950000000     0.742233333333     0.295850000000     0          
O        O      0.049200000000     0.702300000000     0.278050000000     0          
O        O      0.106550000000     0.668766666667     0.229900000000     0          
O        O      0.111400000000     0.935833333333     0.177250000000     0          
O        O      0.457950000000     0.759566666667     0.362650000000     0          
O        O      0.015300000000     0.688533333333     0.342150000000     0          
O        O      0.022150000000     0.691066666667     0.212500000000     0          
O        O      0.423150000000     0.824333333333     0.316150000000     0          
O        O      0.170900000000     0.932133333333     0.228950000000     0          
T        Si     0.434400000000     0.764866666667     0.324350000000     0          
T        Si     0.003550000000     0.693600000000     0.300750000000     0          
T        Si     0.140400000000     0.969800000000     0.204850000000     0          
T        Si     0.064450000000     0.706933333333     0.237300000000     0          
O        O      0.280050000000     0.757766666667     0.045850000000     0          
O        O      0.200800000000     0.797700000000     0.028050000000     0          
O        O      0.143450000000     0.831233333333     0.479900000000     0          
O        O      0.138600000000     0.897500000000     0.427250000000     0          
O        O      0.292050000000     0.740433333333     0.112650000000     0          
O        O      0.234700000000     0.811466666667     0.092150000000     0          
O        O      0.227850000000     0.808933333333     0.462500000000     0          
O        O      0.326850000000     0.675666666667     0.066150000000     0          
O        O      0.079100000000     0.901200000000     0.478950000000     0          
T        Si     0.315600000000     0.735133333333     0.074350000000     0          
T        Si     0.246450000000     0.806400000000     0.050750000000     0          
T        Si     0.109600000000     0.863533333333     0.454850000000     0          
T        Si     0.185550000000     0.793066666667     0.487300000000     0          
O        O      0.280050000000     0.908900000000     0.795850000000     0          
O        O      0.200800000000     0.868966666667     0.778050000000     0          
O        O      0.143450000000     0.835433333333     0.729900000000     0          
O        O      0.138600000000     0.769166666667     0.677250000000     0          
O        O      0.292050000000     0.926233333333     0.862650000000     0          
O        O      0.234700000000     0.855200000000     0.842150000000     0          
O        O      0.227850000000     0.857733333333     0.712500000000     0          
O        O      0.326850000000     0.991000000000     0.816150000000     0          
O        O      0.079100000000     0.765466666667     0.728950000000     0          
T        Si     0.315600000000     0.931533333333     0.824350000000     0          
T        Si     0.246450000000     0.860266666667     0.800750000000     0          
T        Si     0.109600000000     0.803133333333     0.704850000000     0          
T        Si     0.185550000000     0.873600000000     0.737300000000     0          
T        Si     0.000000000000     0.942666666667     0.625000000000     0          
O        O      0.469950000000     0.924433333333     0.545850000000     0          
O        O      0.049200000000     0.964366666667     0.528050000000     0          
O        O      0.106550000000     0.997900000000     0.979900000000     0          
O        O      0.111400000000     0.730833333333     0.927250000000     0          
O        O      0.457950000000     0.907100000000     0.612650000000     0          
O        O      0.015300000000     0.978133333333     0.592150000000     0          
O        O      0.022150000000     0.975600000000     0.962500000000     0          
O        O      0.423150000000     0.842333333333     0.566150000000     0          
O        O      0.170900000000     0.734533333333     0.978950000000     0          
T        Si     0.434400000000     0.901800000000     0.574350000000     0          
T        Si     0.003550000000     0.973066666667     0.550750000000     0          
T        Si     0.140400000000     0.696866666667     0.954850000000     0          
T        Si     0.064450000000     0.959733333333     0.987300000000     0          
T        Si     0.250000000000     0.890666666667     0.875000000000     0          
O        O      0.030050000000     0.924433333333     0.704150000000     0          
O        O      0.450800000000     0.964366666667     0.721950000000     0          
O        O      0.393450000000     0.997900000000     0.770100000000     0          
O        O      0.388600000000     0.730833333333     0.822750000000     0          
O        O      0.042050000000     0.907100000000     0.637350000000     0          
O        O      0.484700000000     0.978133333333     0.657850000000     0          
O        O      0.477850000000     0.975600000000     0.787500000000     0          
O        O      0.076850000000     0.842333333333     0.683850000000     0          
O        O      0.329100000000     0.734533333333     0.771050000000     0          
T        Si     0.065600000000     0.901800000000     0.675650000000     0          
T        Si     0.496450000000     0.973066666667     0.699250000000     0          
T        Si     0.359600000000     0.696866666667     0.795150000000     0          
T        Si     0.435550000000     0.959733333333     0.762700000000     0          
O        O      0.219950000000     0.908900000000     0.954150000000     0          
O        O      0.299200000000     0.868966666667     0.971950000000     0          
O        O      0.356550000000     0.835433333333     0.520100000000     0          
O        O      0.361400000000     0.769166666667     0.572750000000     0          
O        O      0.207950000000     0.926233333333     0.887350000000     0          
O        O      0.265300000000     0.855200000000     0.907850000000     0          
O        O      0.272150000000     0.857733333333     0.537500000000     0          
O        O      0.173150000000     0.991000000000     0.933850000000     0          
O        O      0.420900000000     0.765466666667     0.521050000000     0          
T        Si     0.184400000000     0.931533333333     0.925650000000     0          
T        Si     0.253550000000     0.860266666667     0.949250000000     0          
T        Si     0.390400000000     0.803133333333     0.545150000000     0          
T        Si     0.314450000000     0.873600000000     0.512700000000     0          
O        O      0.219950000000     0.757766666667     0.704150000000     0          
O        O      0.299200000000     0.797700000000     0.721950000000     0          
O        O      0.356550000000     0.831233333333     0.770100000000     0          
O        O      0.361400000000     0.897500000000     0.822750000000     0          
O        O      0.207950000000     0.740433333333     0.637350000000     0          
O        O      0.265300000000     0.811466666667     0.657850000000     0          
O        O      0.272150000000     0.808933333333     0.787500000000     0          
O        O      0.173150000000     0.675666666667     0.683850000000     0          
O        O      0.420900000000     0.901200000000     0.771050000000     0          
T        Si     0.184400000000     0.735133333333     0.675650000000     0          
T        Si     0.253550000000     0.806400000000     0.699250000000     0          
T        Si     0.390400000000     0.863533333333     0.795150000000     0          
T        Si     0.314450000000     0.793066666667     0.762700000000     0          
T        Si     0.000000000000     0.724000000000     0.875000000000     0          
O        O      0.030050000000     0.742233333333     0.954150000000     0          
O        O      0.450800000000     0.702300000000     0.971950000000     0          
O        O      0.393450000000     0.668766666667     0.520100000000     0          
O        O      0.388600000000     0.935833333333     0.572750000000     0          
O        O      0.042050000000     0.759566666667     0.887350000000     0          
O        O      0.484700000000     0.688533333333     0.907850000000     0          
O        O      0.477850000000     0.691066666667     0.537500000000     0          
O        O      0.076850000000     0.824333333333     0.933850000000     0          
O        O      0.329100000000     0.932133333333     0.521050000000     0          
T        Si     0.065600000000     0.764866666667     0.925650000000     0          
T        Si     0.496450000000     0.693600000000     0.949250000000     0          
T        Si     0.359600000000     0.969800000000     0.545150000000     0          
T        Si     0.435550000000     0.706933333333     0.512700000000     0          
T        Si     0.250000000000     0.776000000000     0.625000000000     0          
O        O      0.469950000000     0.742233333333     0.795850000000     0          
O        O      0.049200000000     0.702300000000     0.778050000000     0          
O        O      0.106550000000     0.668766666667     0.729900000000     0          
O        O      0.111400000000     0.935833333333     0.677250000000     0          
O        O      0.457950000000     0.759566666667     0.862650000000     0          
O        O      0.015300000000     0.688533333333     0.842150000000     0          
O        O      0.022150000000     0.691066666667     0.712500000000     0          
O        O      0.423150000000     0.824333333333     0.816150000000     0          
O        O      0.170900000000     0.932133333333     0.728950000000     0          
T        Si     0.434400000000     0.764866666667     0.824350000000     0          
T        Si     0.003550000000     0.693600000000     0.800750000000     0          
T        Si     0.140400000000     0.969800000000     0.704850000000     0          
T        Si     0.064450000000     0.706933333333     0.737300000000     0          
O        O      0.280050000000     0.757766666667     0.545850000000     0          
O        O      0.200800000000     0.797700000000     0.528050000000     0          
O        O      0.143450000000     0.831233333333     0.979900000000     0          
O        O      0.138600000000     0.897500000000     0.927250000000     0          
O        O      0.292050000000     0.740433333333     0.612650000000     0          
O        O      0.234700000000     0.811466666667     0.592150000000     0          
O        O      0.227850000000     0.808933333333     0.962500000000     0          
O        O      0.326850000000     0.675666666667     0.566150000000     0          
O        O      0.079100000000     0.901200000000     0.978950000000     0          
T        Si     0.315600000000     0.735133333333     0.574350000000     0          
T        Si     0.246450000000     0.806400000000     0.550750000000     0          
T        Si     0.109600000000     0.863533333333     0.954850000000     0          
T        Si     0.185550000000     0.793066666667     0.987300000000     0          
O        O      0.780050000000     0.242233333333     0.295850000000     0          
O        O      0.700800000000     0.202300000000     0.278050000000     0          
O        O      0.643450000000     0.168766666667     0.229900000000     0          
O        O      0.638600000000     0.102500000000     0.177250000000     0          
O        O      0.792050000000     0.259566666667     0.362650000000     0          
O        O      0.734700000000     0.188533333333     0.342150000000     0          
O        O      0.727850000000     0.191066666667     0.212500000000     0          
O        O      0.826850000000     0.324333333333     0.316150000000     0          
O        O      0.579100000000     0.098800000000     0.228950000000     0          
T        Si     0.815600000000     0.264866666667     0.324350000000     0          
T        Si     0.746450000000     0.193600000000     0.300750000000     0          
T        Si     0.609600000000     0.136466666667     0.204850000000     0          
T        Si     0.685550000000     0.206933333333     0.237300000000     0          
T        Si     0.500000000000     0.276000000000     0.125000000000     0          
O        O      0.969950000000     0.257766666667     0.045850000000     0          
O        O      0.549200000000     0.297700000000     0.028050000000     0          
O        O      0.606550000000     0.331233333333     0.479900000000     0          
O        O      0.611400000000     0.064166666667     0.427250000000     0          
O        O      0.957950000000     0.240433333333     0.112650000000     0          
O        O      0.515300000000     0.311466666667     0.092150000000     0          
O        O      0.522150000000     0.308933333333     0.462500000000     0          
O        O      0.923150000000     0.175666666667     0.066150000000     0          
O        O      0.670900000000     0.067866666667     0.478950000000     0          
T        Si     0.934400000000     0.235133333333     0.074350000000     0          
T        Si     0.503550000000     0.306400000000     0.050750000000     0          
T        Si     0.640400000000     0.030200000000     0.454850000000     0          
T        Si     0.564450000000     0.293066666667     0.487300000000     0          
T        Si     0.750000000000     0.224000000000     0.375000000000     0          
O        O      0.530050000000     0.257766666667     0.204150000000     0          
O        O      0.950800000000     0.297700000000     0.221950000000     0          
O        O      0.893450000000     0.331233333333     0.270100000000     0          
O        O      0.888600000000     0.064166666667     0.322750000000     0          
O        O      0.542050000000     0.240433333333     0.137350000000     0          
O        O      0.984700000000     0.311466666667     0.157850000000     0          
O        O      0.977850000000     0.308933333333     0.287500000000     0          
O        O      0.576850000000     0.175666666667     0.183850000000     0          
O        O      0.829100000000     0.067866666667     0.271050000000     0          
T        Si     0.565600000000     0.235133333333     0.175650000000     0          
T        Si     0.996450000000     0.306400000000     0.199250000000     0          
T        Si     0.859600000000     0.030200000000     0.295150000000     0          
T        Si     0.935550000000     0.293066666667     0.262700000000     0          
O        O      0.719950000000     0.242233333333     0.454150000000     0          
O        O      0.799200000000     0.202300000000     0.471950000000     0          
O        O      0.856550000000     0.168766666667     0.020100000000     0          
O        O      0.861400000000     0.102500000000     0.072750000000     0          
O        O      0.707950000000     0.259566666667     0.387350000000     0          
O        O      0.765300000000     0.188533333333     0.407850000000     0          
O        O      0.772150000000     0.191066666667     0.037500000000     0          
O        O      0.673150000000     0.324333333333     0.433850000000     0          
O        O      0.920900000000     0.098800000000     0.021050000000     0          
T        Si     0.684400000000     0.264866666667     0.425650000000     0          
T        Si     0.753550000000     0.193600000000     0.449250000000     0          
T        Si     0.890400000000     0.136466666667     0.045150000000     0          
T        Si     0.814450000000     0.206933333333     0.012700000000     0          
O        O      0.719950000000     0.091100000000     0.204150000000     0          
O        O      0.799200000000     0.131033333333     0.221950000000     0          
O        O      0.856550000000     0.164566666667     0.270100000000     0          
O        O      0.861400000000     0.230833333333     0.322750000000     0          
O        O      0.707950000000     0.073766666667     0.137350000000     0          
O        O      0.765300000000     0.144800000000     0.157850000000     0          
O        O      0.772150000000     0.142266666667     0.287500000000     0          
O        O      0.673150000000     0.009000000000     0.183850000000     0          
O        O      0.920900000000     0.234533333333     0.271050000000     0          
T        Si     0.684400000000     0.068466666667     0.175650000000     0          
T        Si     0.753550000000     0.139733333333     0.199250000000     0          
T        Si     0.890400000000     0.196866666667     0.295150000000     0          
T        Si     0.814450000000     0.126400000000     0.262700000000     0          
T        Si     0.500000000000     0.057333333333     0.375000000000     0          
O        O      0.530050000000     0.075566666667     0.454150000000     0          
O        O      0.950800000000     0.035633333333     0.471950000000     0          
O        O      0.893450000000     0.002100000000     0.020100000000     0          
O        O      0.888600000000     0.269166666667     0.072750000000     0          
O        O      0.542050000000     0.092900000000     0.387350000000     0          
O        O      0.984700000000     0.021866666667     0.407850000000     0          
O        O      0.977850000000     0.024400000000     0.037500000000     0          
O        O      0.576850000000     0.157666666667     0.433850000000     0          
O        O      0.829100000000     0.265466666667     0.021050000000     0          
T        Si     0.565600000000     0.098200000000     0.425650000000     0          
T        Si     0.996450000000     0.026933333333     0.449250000000     0          
T        Si     0.859600000000     0.303133333333     0.045150000000     0          
T        Si     0.935550000000     0.040266666667     0.012700000000     0          
T        Si     0.750000000000     0.109333333333     0.125000000000     0          
O        O      0.969950000000     0.075566666667     0.295850000000     0          
O        O      0.549200000000     0.035633333333     0.278050000000     0          
O        O      0.606550000000     0.002100000000     0.229900000000     0          
O        O      0.611400000000     0.269166666667     0.177250000000     0          
O        O      0.957950000000     0.092900000000     0.362650000000     0          
O        O      0.515300000000     0.021866666667     0.342150000000     0          
O        O      0.522150000000     0.024400000000     0.212500000000     0          
O        O      0.923150000000     0.157666666667     0.316150000000     0          
O        O      0.670900000000     0.265466666667     0.228950000000     0          
T        Si     0.934400000000     0.098200000000     0.324350000000     0          
T        Si     0.503550000000     0.026933333333     0.300750000000     0          
T        Si     0.640400000000     0.303133333333     0.204850000000     0          
T        Si     0.564450000000     0.040266666667     0.237300000000     0          
O        O      0.780050000000     0.091100000000     0.045850000000     0          
O        O      0.700800000000     0.131033333333     0.028050000000     0          
O        O      0.643450000000     0.164566666667     0.479900000000     0          
O        O      0.638600000000     0.230833333333     0.427250000000     0          
O        O      0.792050000000     0.073766666667     0.112650000000     0          
O        O      0.734700000000     0.144800000000     0.092150000000     0          
O        O      0.727850000000     0.142266666667     0.462500000000     0          
O        O      0.826850000000     0.009000000000     0.066150000000     0          
O        O      0.579100000000     0.234533333333     0.478950000000     0          
T        Si     0.815600000000     0.068466666667     0.074350000000     0          
T        Si     0.746450000000     0.139733333333     0.050750000000     0          
T        Si     0.609600000000     0.196866666667     0.454850000000     0          
T        Si     0.685550000000     0.126400000000     0.487300000000     0          
O        O      0.780050000000     0.242233333333     0.795850000000     0          
O        O      0.700800000000     0.202300000000     0.778050000000     0          
O        O      0.643450000000     0.168766666667     0.729900000000     0          
O        O      0.638600000000     0.102500000000     0.677250000000     0          
O        O      0.792050000000     0.259566666667     0.862650000000     0          
O        O      0.734700000000     0.188533333333     0.842150000000     0          
O        O      0.727850000000     0.191066666667     0.712500000000     0          
O        O      0.826850000000     0.324333333333     0.816150000000     0          
O        O      0.579100000000     0.098800000000     0.728950000000     0          
T        Si     0.815600000000     0.264866666667     0.824350000000     0          
T        Si     0.746450000000     0.193600000000     0.800750000000     0          
T        Si     0.609600000000     0.136466666667     0.704850000000     0          
T        Si     0.685550000000     0.206933333333     0.737300000000     0          
T        Si     0.500000000000     0.276000000000     0.625000000000     0          
O        O      0.969950000000     0.257766666667     0.545850000000     0          
O        O      0.549200000000     0.297700000000     0.528050000000     0          
O        O      0.606550000000     0.331233333333     0.979900000000     0          
O        O      0.611400000000     0.064166666667     0.927250000000     0          
O        O      0.957950000000     0.240433333333     0.612650000000     0          
O        O      0.515300000000     0.311466666667     0.592150000000     0          
O        O      0.522150000000     0.308933333333     0.962500000000     0          
O        O      0.923150000000     0.175666666667     0.566150000000     0          
O        O      0.670900000000     0.067866666667     0.978950000000     0          
T        Si     0.934400000000     0.235133333333     0.574350000000     0          
T        Si     0.503550000000     0.306400000000     0.550750000000     0          
T        Si     0.640400000000     0.030200000000     0.954850000000     0          
T        Si     0.564450000000     0.293066666667     0.987300000000     0          
T        Si     0.750000000000     0.224000000000     0.875000000000     0          
O        O      0.530050000000     0.257766666667     0.704150000000     0          
O        O      0.950800000000     0.297700000000     0.721950000000     0          
O        O      0.893450000000     0.331233333333     0.770100000000     0          
O        O      0.888600000000     0.064166666667     0.822750000000     0          
O        O      0.542050000000     0.240433333333     0.637350000000     0          
O        O      0.984700000000     0.311466666667     0.657850000000     0          
O        O      0.977850000000     0.308933333333     0.787500000000     0          
O        O      0.576850000000     0.175666666667     0.683850000000     0          
O        O      0.829100000000     0.067866666667     0.771050000000     0          
T        Si     0.565600000000     0.235133333333     0.675650000000     0          
T        Si     0.996450000000     0.306400000000     0.699250000000     0          
T        Si     0.859600000000     0.030200000000     0.795150000000     0          
T        Si     0.935550000000     0.293066666667     0.762700000000     0          
O        O      0.719950000000     0.242233333333     0.954150000000     0          
O        O      0.799200000000     0.202300000000     0.971950000000     0          
O        O      0.856550000000     0.168766666667     0.520100000000     0          
O        O      0.861400000000     0.102500000000     0.572750000000     0          
O        O      0.707950000000     0.259566666667     0.887350000000     0          
O        O      0.765300000000     0.188533333333     0.907850000000     0          
O        O      0.772150000000     0.191066666667     0.537500000000     0          
O        O      0.673150000000     0.324333333333     0.933850000000     0          
O        O      0.920900000000     0.098800000000     0.521050000000     0          
T        Si     0.684400000000     0.264866666667     0.925650000000     0          
T        Si     0.753550000000     0.193600000000     0.949250000000     0          
T        Si     0.890400000000     0.136466666667     0.545150000000     0          
T        Si     0.814450000000     0.206933333333     0.512700000000     0          
O        O      0.719950000000     0.091100000000     0.704150000000     0          
O        O      0.799200000000     0.131033333333     0.721950000000     0          
O        O      0.856550000000     0.164566666667     0.770100000000     0          
O        O      0.861400000000     0.230833333333     0.822750000000     0          
O        O      0.707950000000     0.073766666667     0.637350000000     0          
O        O      0.765300000000     0.144800000000     0.657850000000     0          
O        O      0.772150000000     0.142266666667     0.787500000000     0          
O        O      0.673150000000     0.009000000000     0.683850000000     0          
O        O      0.920900000000     0.234533333333     0.771050000000     0          
T        Si     0.684400000000     0.068466666667     0.675650000000     0          
T        Si     0.753550000000     0.139733333333     0.699250000000     0          
T        Si     0.890400000000     0.196866666667     0.795150000000     0          
T        Si     0.814450000000     0.126400000000     0.762700000000     0          
T        Si     0.500000000000     0.057333333333     0.875000000000     0          
O        O      0.530050000000     0.075566666667     0.954150000000     0          
O        O      0.950800000000     0.035633333333     0.971950000000     0          
O        O      0.893450000000     0.002100000000     0.520100000000     0          
O        O      0.888600000000     0.269166666667     0.572750000000     0          
O        O      0.542050000000     0.092900000000     0.887350000000     0          
O        O      0.984700000000     0.021866666667     0.907850000000     0          
O        O      0.977850000000     0.024400000000     0.537500000000     0          
O        O      0.576850000000     0.157666666667     0.933850000000     0          
O        O      0.829100000000     0.265466666667     0.521050000000     0          
T        Si     0.565600000000     0.098200000000     0.925650000000     0          
T        Si     0.996450000000     0.026933333333     0.949250000000     0          
T        Si     0.859600000000     0.303133333333     0.545150000000     0          
T        Si     0.935550000000     0.040266666667     0.512700000000     0          
T        Si     0.750000000000     0.109333333333     0.625000000000     0          
O        O      0.969950000000     0.075566666667     0.795850000000     0          
O        O      0.549200000000     0.035633333333     0.778050000000     0          
O        O      0.606550000000     0.002100000000     0.729900000000     0          
O        O      0.611400000000     0.269166666667     0.677250000000     0          
O        O      0.957950000000     0.092900000000     0.862650000000     0          
O        O      0.515300000000     0.021866666667     0.842150000000     0          
O        O      0.522150000000     0.024400000000     0.712500000000     0          
O        O      0.923150000000     0.157666666667     0.816150000000     0          
O        O      0.670900000000     0.265466666667     0.728950000000     0          
T        Si     0.934400000000     0.098200000000     0.824350000000     0          
T        Si     0.503550000000     0.026933333333     0.800750000000     0          
T        Si     0.640400000000     0.303133333333     0.704850000000     0          
T        Si     0.564450000000     0.040266666667     0.737300000000     0          
O        O      0.780050000000     0.091100000000     0.545850000000     0          
O        O      0.700800000000     0.131033333333     0.528050000000     0          
O        O      0.643450000000     0.164566666667     0.979900000000     0          
O        O      0.638600000000     0.230833333333     0.927250000000     0          
O        O      0.792050000000     0.073766666667     0.612650000000     0          
O        O      0.734700000000     0.144800000000     0.592150000000     0          
O        O      0.727850000000     0.142266666667     0.962500000000     0          
O        O      0.826850000000     0.009000000000     0.566150000000     0          
O        O      0.579100000000     0.234533333333     0.978950000000     0          
T        Si     0.815600000000     0.068466666667     0.574350000000     0          
T        Si     0.746450000000     0.139733333333     0.550750000000     0          
T        Si     0.609600000000     0.196866666667     0.954850000000     0          
T        Si     0.685550000000     0.126400000000     0.987300000000     0          
O        O      0.780050000000     0.575566666667     0.295850000000     0          
O        O      0.700800000000     0.535633333333     0.278050000000     0          
O        O      0.643450000000     0.502100000000     0.229900000000     0          
O        O      0.638600000000     0.435833333333     0.177250000000     0          
O        O      0.792050000000     0.592900000000     0.362650000000     0          
O        O      0.734700000000     0.521866666667     0.342150000000     0          
O        O      0.727850000000     0.524400000000     0.212500000000     0          
O        O      0.826850000000     0.657666666667     0.316150000000     0          
O        O      0.579100000000     0.432133333333     0.228950000000     0          
T        Si     0.815600000000     0.598200000000     0.324350000000     0          
T        Si     0.746450000000     0.526933333333     0.300750000000     0          
T        Si     0.609600000000     0.469800000000     0.204850000000     0          
T        Si     0.685550000000     0.540266666667     0.237300000000     0          
T        Si     0.500000000000     0.609333333333     0.125000000000     0          
O        O      0.969950000000     0.591100000000     0.045850000000     0          
O        O      0.549200000000     0.631033333333     0.028050000000     0          
O        O      0.606550000000     0.664566666667     0.479900000000     0          
O        O      0.611400000000     0.397500000000     0.427250000000     0          
O        O      0.957950000000     0.573766666667     0.112650000000     0          
O        O      0.515300000000     0.644800000000     0.092150000000     0          
O        O      0.522150000000     0.642266666667     0.462500000000     0          
O        O      0.923150000000     0.509000000000     0.066150000000     0          
O        O      0.670900000000     0.401200000000     0.478950000000     0          
T        Si     0.934400000000     0.568466666667     0.074350000000     0          
T        Si     0.503550000000     0.639733333333     0.050750000000     0          
T        Si     0.640400000000     0.363533333333     0.454850000000     0          
T        Si     0.564450000000     0.626400000000     0.487300000000     0          
T        Si     0.750000000000     0.557333333333     0.375000000000     0          
O        O      0.530050000000     0.591100000000     0.204150000000     0          
O        O      0.950800000000     0.631033333333     0.221950000000     0          
O        O      0.893450000000     0.664566666667     0.270100000000     0          
O        O      0.888600000000     0.397500000000     0.322750000000     0          
O        O      0.542050000000     0.573766666667     0.137350000000     0          
O        O      0.984700000000     0.644800000000     0.157850000000     0          
O        O      0.977850000000     0.642266666667     0.287500000000     0          
O        O      0.576850000000     0.509000000000     0.183850000000     0          
O        O      0.829100000000     0.401200000000     0.271050000000     0          
T        Si     0.565600000000     0.568466666667     0.175650000000     0          
T        Si     0.996450000000     0.639733333333     0.199250000000     0          
T        Si     0.859600000000     0.363533333333     0.295150000000     0          
T        Si     0.935550000000     0.626400000000     0.262700000000     0          
O        O      0.719950000000     0.575566666667     0.454150000000     0          
O        O      0.799200000000     0.535633333333     0.471950000000     0          
O        O      0.856550000000     0.502100000000     0.020100000000     0          
O        O      0.861400000000     0.435833333333     0.072750000000     0          
O        O      0.707950000000     0.592900000000     0.387350000000     0          
O        O      0.765300000000     0.521866666667     0.407850000000     0          
O        O      0.772150000000     0.524400000000     0.037500000000     0          
O        O      0.673150000000     0.657666666667     0.433850000000     0          
O        O      0.920900000000     0.432133333333     0.021050000000     0          
T        Si     0.684400000000     0.598200000000     0.425650000000     0          
T        Si     0.753550000000     0.526933333333     0.449250000000     0          
T        Si     0.890400000000     0.469800000000     0.045150000000     0          
T        Si     0.814450000000     0.540266666667     0.012700000000     0          
O        O      0.719950000000     0.424433333333     0.204150000000     0          
O        O      0.799200000000     0.464366666667     0.221950000000     0          
O        O      0.856550000000     0.497900000000     0.270100000000     0          
O        O      0.861400000000     0.564166666667     0.322750000000     0          
O        O      0.707950000000     0.407100000000     0.137350000000     0          
O        O      0.765300000000     0.478133333333     0.157850000000     0          
O        O      0.772150000000     0.475600000000     0.287500000000     0          
O        O      0.673150000000     0.342333333333     0.183850000000     0          
O        O      0.920900000000     0.567866666667     0.271050000000     0          
T        Si     0.684400000000     0.401800000000     0.175650000000     0          
T        Si     0.753550000000     0.473066666667     0.199250000000     0          
T        Si     0.890400000000     0.530200000000     0.295150000000     0          
T        Si     0.814450000000     0.459733333333     0.262700000000     0          
T        Si     0.500000000000     0.390666666667     0.375000000000     0          
O        O      0.530050000000     0.408900000000     0.454150000000     0          
O        O      0.950800000000     0.368966666667     0.471950000000     0          
O        O      0.893450000000     0.335433333333     0.020100000000     0          
O        O      0.888600000000     0.602500000000     0.072750000000     0          
O        O      0.542050000000     0.426233333333     0.387350000000     0          
O        O      0.984700000000     0.355200000000     0.407850000000     0          
O        O      0.977850000000     0.357733333333     0.037500000000     0          
O        O      0.576850000000     0.491000000000     0.433850000000     0          
O        O      0.829100000000     0.598800000000     0.021050000000     0          
T        Si     0.565600000000     0.431533333333     0.425650000000     0          
T        Si     0.996450000000     0.360266666667     0.449250000000     0          
T        Si     0.859600000000     0.636466666667     0.045150000000     0          
T        Si     0.935550000000     0.373600000000     0.012700000000     0          
T        Si     0.750000000000     0.442666666667     0.125000000000     0          
O        O      0.969950000000     0.408900000000     0.295850000000     0          
O        O      0.549200000000     0.368966666667     0.278050000000     0          
O        O      0.606550000000     0.335433333333     0.229900000000     0          
O        O      0.611400000000     0.602500000000     0.177250000000     0          
O        O      0.957950000000     0.426233333333     0.362650000000     0          
O        O      0.515300000000     0.355200000000     0.342150000000     0          
O        O      0.522150000000     0.357733333333     0.212500000000     0          
O        O      0.923150000000     0.491000000000     0.316150000000     0          
O        O      0.670900000000     0.598800000000     0.228950000000     0          
T        Si     0.934400000000     0.431533333333     0.324350000000     0          
T        Si     0.503550000000     0.360266666667     0.300750000000     0          
T        Si     0.640400000000     0.636466666667     0.204850000000     0          
T        Si     0.564450000000     0.373600000000     0.237300000000     0          
O        O      0.780050000000     0.424433333333     0.045850000000     0          
O        O      0.700800000000     0.464366666667     0.028050000000     0          
O        O      0.643450000000     0.497900000000     0.479900000000     0          
O        O      0.638600000000     0.564166666667     0.427250000000     0          
O        O      0.792050000000     0.407100000000     0.112650000000     0          
O        O      0.734700000000     0.478133333333     0.092150000000     0          
O        O      0.727850000000     0.475600000000     0.462500000000     0          
O        O      0.826850000000     0.342333333333     0.066150000000     0          
O        O      0.579100000000     0.567866666667     0.478950000000     0          
T        Si     0.815600000000     0.401800000000     0.074350000000     0          
T        Si     0.746450000000     0.473066666667     0.050750000000     0          
T        Si     0.609600000000     0.530200000000     0.454850000000     0          
T        Si     0.685550000000     0.459733333333     0.487300000000     0          
O        O      0.780050000000     0.575566666667     0.795850000000     0          
O        O      0.700800000000     0.535633333333     0.778050000000     0          
O        O      0.643450000000     0.502100000000     0.729900000000     0          
O        O      0.638600000000     0.435833333333     0.677250000000     0          
O        O      0.792050000000     0.592900000000     0.862650000000     0          
O        O      0.734700000000     0.521866666667     0.842150000000     0          
O        O      0.727850000000     0.524400000000     0.712500000000     0          
O        O      0.826850000000     0.657666666667     0.816150000000     0          
O        O      0.579100000000     0.432133333333     0.728950000000     0          
T        Si     0.815600000000     0.598200000000     0.824350000000     0          
T        Si     0.746450000000     0.526933333333     0.800750000000     0          
T        Si     0.609600000000     0.469800000000     0.704850000000     0          
T        Si     0.685550000000     0.540266666667     0.737300000000     0          
T        Si     0.500000000000     0.609333333333     0.625000000000     0          
O        O      0.969950000000     0.591100000000     0.545850000000     0          
O        O      0.549200000000     0.631033333333     0.528050000000     0          
O        O      0.606550000000     0.664566666667     0.979900000000     0          
O        O      0.611400000000     0.397500000000     0.927250000000     0          
O        O      0.957950000000     0.573766666667     0.612650000000     0          
O        O      0.515300000000     0.644800000000     0.592150000000     0          
O        O      0.522150000000     0.642266666667     0.962500000000     0          
O        O      0.923150000000     0.509000000000     0.566150000000     0          
O        O      0.670900000000     0.401200000000     0.978950000000     0          
T        Si     0.934400000000     0.568466666667     0.574350000000     0          
T        Si     0.503550000000     0.639733333333     0.550750000000     0          
T        Si     0.640400000000     0.363533333333     0.954850000000     0          
T        Si     0.564450000000     0.626400000000     0.987300000000     0          
T        Si     0.750000000000     0.557333333333     0.875000000000     0          
O        O      0.530050000000     0.591100000000     0.704150000000     0          
O        O      0.950800000000     0.631033333333     0.721950000000     0          
O        O      0.893450000000     0.664566666667     0.770100000000     0          
O        O      0.888600000000     0.397500000000     0.822750000000     0          
O        O      0.542050000000     0.573766666667     0.637350000000     0          
O        O      0.984700000000     0.644800000000     0.657850000000     0          
O        O      0.977850000000     0.642266666667     0.787500000000     0          
O        O      0.576850000000     0.509000000000     0.683850000000     0          
O        O      0.829100000000     0.401200000000     0.771050000000     0          
T        Si     0.565600000000     0.568466666667     0.675650000000     0          
T        Si     0.996450000000     0.639733333333     0.699250000000     0          
T        Si     0.859600000000     0.363533333333     0.795150000000     0          
T        Si     0.935550000000     0.626400000000     0.762700000000     0          
O        O      0.719950000000     0.575566666667     0.954150000000     0          
O        O      0.799200000000     0.535633333333     0.971950000000     0          
O        O      0.856550000000     0.502100000000     0.520100000000     0          
O        O      0.861400000000     0.435833333333     0.572750000000     0          
O        O      0.707950000000     0.592900000000     0.887350000000     0          
O        O      0.765300000000     0.521866666667     0.907850000000     0          
O        O      0.772150000000     0.524400000000     0.537500000000     0          
O        O      0.673150000000     0.657666666667     0.933850000000     0          
O        O      0.920900000000     0.432133333333     0.521050000000     0          
T        Si     0.684400000000     0.598200000000     0.925650000000     0          
T        Si     0.753550000000     0.526933333333     0.949250000000     0          
T        Si     0.890400000000     0.469800000000     0.545150000000     0          
T        Si     0.814450000000     0.540266666667     0.512700000000     0          
O        O      0.719950000000     0.424433333333     0.704150000000     0          
O        O      0.799200000000     0.464366666667     0.721950000000     0          
O        O      0.856550000000     0.497900000000     0.770100000000     0          
O        O      0.861400000000     0.564166666667     0.822750000000     0          
O        O      0.707950000000     0.407100000000     0.637350000000     0          
O        O      0.765300000000     0.478133333333     0.657850000000     0          
O        O      0.772150000000     0.475600000000     0.787500000000     0          
O        O      0.673150000000     0.342333333333     0.683850000000     0          
O        O      0.920900000000     0.567866666667     0.771050000000     0          
T        Si     0.684400000000     0.401800000000     0.675650000000     0          
T        Si     0.753550000000     0.473066666667     0.699250000000     0          
T        Si     0.890400000000     0.530200000000     0.795150000000     0          
T        Si     0.814450000000     0.459733333333     0.762700000000     0          
T        Si     0.500000000000     0.390666666667     0.875000000000     0          
O        O      0.530050000000     0.408900000000     0.954150000000     0          
O        O      0.950800000000     0.368966666667     0.971950000000     0          
O        O      0.893450000000     0.335433333333     0.520100000000     0          
O        O      0.888600000000     0.602500000000     0.572750000000     0          
O        O      0.542050000000     0.426233333333     0.887350000000     0          
O        O      0.984700000000     0.355200000000     0.907850000000     0          
O        O      0.977850000000     0.357733333333     0.537500000000     0          
O        O      0.576850000000     0.491000000000     0.933850000000     0          
O        O      0.829100000000     0.598800000000     0.521050000000     0          
T        Si     0.565600000000     0.431533333333     0.925650000000     0          
T        Si     0.996450000000     0.360266666667     0.949250000000     0          
T        Si     0.859600000000     0.636466666667     0.545150000000     0          
T        Si     0.935550000000     0.373600000000     0.512700000000     0          
T        Si     0.750000000000     0.442666666667     0.625000000000     0          
O        O      0.969950000000     0.408900000000     0.795850000000     0          
O        O      0.549200000000     0.368966666667     0.778050000000     0          
O        O      0.606550000000     0.335433333333     0.729900000000     0          
O        O      0.611400000000     0.602500000000     0.677250000000     0          
O        O      0.957950000000     0.426233333333     0.862650000000     0          
O        O      0.515300000000     0.355200000000     0.842150000000     0          
O        O      0.522150000000     0.357733333333     0.712500000000     0          
O        O      0.923150000000     0.491000000000     0.816150000000     0          
O        O      0.670900000000     0.598800000000     0.728950000000     0          
T        Si     0.934400000000     0.431533333333     0.824350000000     0          
T        Si     0.503550000000     0.360266666667     0.800750000000     0          
T        Si     0.640400000000     0.636466666667     0.704850000000     0          
T        Si     0.564450000000     0.373600000000     0.737300000000     0          
O        O      0.780050000000     0.424433333333     0.545850000000     0          
O        O      0.700800000000     0.464366666667     0.528050000000     0          
O        O      0.643450000000     0.497900000000     0.979900000000     0          
O        O      0.638600000000     0.564166666667     0.927250000000     0          
O        O      0.792050000000     0.407100000000     0.612650000000     0          
O        O      0.734700000000     0.478133333333     0.592150000000     0          
O        O      0.727850000000     0.475600000000     0.962500000000     0          
O        O      0.826850000000     0.342333333333     0.566150000000     0          
O        O      0.579100000000     0.567866666667     0.978950000000     0          
T        Si     0.815600000000     0.401800000000     0.574350000000     0          
T        Si     0.746450000000     0.473066666667     0.550750000000     0          
T        Si     0.609600000000     0.530200000000     0.954850000000     0          
T        Si     0.685550000000     0.459733333333     0.987300000000     0          
O        O      0.780050000000     0.908900000000     0.295850000000     0          
O        O      0.700800000000     0.868966666667     0.278050000000     0          
O        O      0.643450000000     0.835433333333     0.229900000000     0          
O        O      0.638600000000     0.769166666667     0.177250000000     0          
O        O      0.792050000000     0.926233333333     0.362650000000     0          
O        O      0.734700000000     0.855200000000     0.342150000000     0          
O        O      0.727850000000     0.857733333333     0.212500000000     0          
O        O      0.826850000000     0.991000000000     0.316150000000     0          
O        O      0.579100000000     0.765466666667     0.228950000000     0          
T        Si     0.815600000000     0.931533333333     0.324350000000     0          
T        Si     0.746450000000     0.860266666667     0.300750000000     0          
T        Si     0.609600000000     0.803133333333     0.204850000000     0          
T        Si     0.685550000000     0.873600000000     0.237300000000     0          
T        Si     0.500000000000     0.942666666667     0.125000000000     0          
O        O      0.969950000000     0.924433333333     0.045850000000     0          
O        O      0.549200000000     0.964366666667     0.028050000000     0          
O        O      0.606550000000     0.997900000000     0.479900000000     0          
O        O      0.611400000000     0.730833333333     0.427250000000     0          
O        O      0.957950000000     0.907100000000     0.112650000000     0          
O        O      0.515300000000     0.978133333333     0.092150000000     0          
O        O      0.522150000000     0.975600000000     0.462500000000     0          
O        O      0.923150000000     0.842333333333     0.066150000000     0          
O        O      0.670900000000     0.734533333333     0.478950000000     0          
T        Si     0.934400000000     0.901800000000     0.074350000000     0          
T        Si     0.503550000000     0.973066666667     0.050750000000     0          
T        Si     0.640400000000     0.696866666667     0.454850000000     0          
T        Si     0.564450000000     0.959733333333     0.487300000000     0          
T        Si     0.750000000000     0.890666666667     0.375000000000     0          
O        O      0.530050000000     0.924433333333     0.204150000000     0          
O        O      0.950800000000     0.964366666667     0.221950000000     0          
O        O      0.893450000000     0.997900000000     0.270100000000     0          
O        O      0.888600000000     0.730833333333     0.322750000000     0          
O        O      0.542050000000     0.907100000000     0.137350000000     0          
O        O      0.984700000000     0.978133333333     0.157850000000     0          
O        O      0.977850000000     0.975600000000     0.287500000000     0          
O        O      0.576850000000     0.842333333333     0.183850000000     0          
O        O      0.829100000000     0.734533333333     0.271050000000     0          
T        Si     0.565600000000     0.901800000000     0.175650000000     0          
T        Si     0.996450000000     0.973066666667     0.199250000000     0          
T        Si     0.859600000000     0.696866666667     0.295150000000     0          
T        Si     0.935550000000     0.959733333333     0.262700000000     0          
O        O      0.719950000000     0.908900000000     0.454150000000     0          
O        O      0.799200000000     0.868966666667     0.471950000000     0          
O        O      0.856550000000     0.835433333333     0.020100000000     0          
O        O      0.861400000000     0.769166666667     0.072750000000     0          
O        O      0.707950000000     0.926233333333     0.387350000000     0          
O        O      0.765300000000     0.855200000000     0.407850000000     0          
O        O      0.772150000000     0.857733333333     0.037500000000     0          
O        O      0.673150000000     0.991000000000     0.433850000000     0          
O        O      0.920900000000     0.765466666667     0.021050000000     0          
T        Si     0.684400000000     0.931533333333     0.425650000000     0          
T        Si     0.753550000000     0.860266666667     0.449250000000     0          
T        Si     0.890400000000     0.803133333333     0.045150000000     0          
T        Si     0.814450000000     0.873600000000     0.012700000000     0          
O        O      0.719950000000     0.757766666667     0.204150000000     0          
O        O      0.799200000000     0.797700000000     0.221950000000     0          
O        O      0.856550000000     0.831233333333     0.270100000000     0          
O        O      0.861400000000     0.897500000000     0.322750000000     0          
O        O      0.707950000000     0.740433333333     0.137350000000     0          
O        O      0.765300000000     0.811466666667     0.157850000000     0          
O        O      0.772150000000     0.808933333333     0.287500000000     0          
O        O      0.673150000000     0.675666666667     0.183850000000     0          
O        O      0.920900000000     0.901200000000     0.271050000000     0          
T        Si     0.684400000000     0.735133333333     0.175650000000     0          
T        Si     0.753550000000     0.806400000000     0.199250000000     0          
T        Si     0.890400000000     0.863533333333     0.295150000000     0          
T        Si     0.814450000000     0.793066666667     0.262700000000     0          
T        Si     0.500000000000     0.724000000000     0.375000000000     0          
O        O      0.530050000000     0.742233333333     0.454150000000     0          
O        O      0.950800000000     0.702300000000     0.471950000000     0          
O        O      0.893450000000     0.668766666667     0.020100000000     0          
O        O      0.888600000000     0.935833333333     0.072750000000     0          
O        O      0.542050000000     0.759566666667     0.387350000000     0          
O        O      0.984700000000     0.688533333333     0.407850000000     0          
O        O      0.977850000000     0.691066666667     0.037500000000     0          
O        O      0.576850000000     0.824333333333     0.433850000000     0          
O        O      0.829100000000     0.932133333333     0.021050000000     0          
T        Si     0.565600000000     0.764866666667     0.425650000000     0          
T        Si     0.996450000000     0.693600000000     0.449250000000     0          
T        Si     0.859600000000     0.969800000000     0.045150000000     0          
T        Si     0.935550000000     0.706933333333     0.012700000000     0          
T        Si     0.750000000000     0.776000000000     0.125000000000     0          
O        O      0.969950000000     0.742233333333     0.295850000000     0          
O        O      0.549200000000     0.702300000000     0.278050000000     0          
O        O      0.606550000000     0.668766666667     0.229900000000     0          
O        O      0.611400000000     0.935833333333     0.177250000000     0          
O        O      0.957950000000     0.759566666667     0.362650000000     0          
O        O      0.515300000000     0.688533333333     0.342150000000     0          
O        O      0.522150000000     0.691066666667     0.212500000000     0          
O        O      0.923150000000     0.824333333333     0.316150000000     0          
O        O      0.670900000000     0.932133333333     0.228950000000     0          
T        Si     0.934400000000     0.764866666667     0.324350000000     0          
T        Si     0.503550000000     0.693600000000     0.300750000000     0          
T        Si     0.640400000000     0.969800000000     0.204850000000     0          
T        Si     0.564450000000     0.706933333333     0.237300000000     0          
O        O      0.780050000000     0.757766666667     0.045850000000     0          
O        O      0.700800000000     0.797700000000     0.028050000000     0          
O        O      0.643450000000     0.831233333333     0.479900000000     0          
O        O      0.638600000000     0.897500000000     0.427250000000     0          
O        O      0.792050000000     0.740433333333     0.112650000000     0          
O        O      0.734700000000     0.811466666667     0.092150000000     0          
O        O      0.727850000000     0.808933333333     0.462500000000     0          
O        O      0.826850000000     0.675666666667     0.066150000000     0          
O        O      0.579100000000     0.901200000000     0.478950000000     0          
T        Si     0.815600000000     0.735133333333     0.074350000000     0          
T        Si     0.746450000000     0.806400000000     0.050750000000     0          
T        Si     0.609600000000     0.863533333333     0.454850000000     0          
T        Si     0.685550000000     0.793066666667     0.487300000000     0          
O        O      0.780050000000     0.908900000000     0.795850000000     0          
O        O      0.700800000000     0.868966666667     0.778050000000     0          
O        O      0.643450000000     0.835433333333     0.729900000000     0          
O        O      0.638600000000     0.769166666667     0.677250000000     0          
O        O      0.792050000000     0.926233333333     0.862650000000     0          
O        O      0.734700000000     0.855200000000     0.842150000000     0          
O        O      0.727850000000     0.857733333333     0.712500000000     0          
O        O      0.826850000000     0.991000000000     0.816150000000     0          
O        O      0.579100000000     0.765466666667     0.728950000000     0          
T        Si     0.815600000000     0.931533333333     0.824350000000     0          
T        Si     0.746450000000     0.860266666667     0.800750000000     0          
T        Si     0.609600000000     0.803133333333     0.704850000000     0          
T        Si     0.685550000000     0.873600000000     0.737300000000     0          
T        Si     0.500000000000     0.942666666667     0.625000000000     0          
O        O      0.969950000000     0.924433333333     0.545850000000     0          
O        O      0.549200000000     0.964366666667     0.528050000000     0          
O        O      0.606550000000     0.997900000000     0.979900000000     0          
O        O      0.611400000000     0.730833333333     0.927250000000     0          
O        O      0.957950000000     0.907100000000     0.612650000000     0          
O        O      0.515300000000     0.978133333333     0.592150000000     0          
O        O      0.522150000000     0.975600000000     0.962500000000     0          
O        O      0.923150000000     0.842333333333     0.566150000000     0          
O        O      0.670900000000     0.734533333333     0.978950000000     0          
T        Si     0.934400000000     0.901800000000     0.574350000000     0          
T        Si     0.503550000000     0.973066666667     0.550750000000     0          
T        Si     0.640400000000     0.696866666667     0.954850000000     0          
T        Si     0.564450000000     0.959733333333     0.987300000000     0          
T        Si     0.750000000000     0.890666666667     0.875000000000     0          
O        O      0.530050000000     0.924433333333     0.704150000000     0          
O        O      0.950800000000     0.964366666667     0.721950000000     0          
O        O      0.893450000000     0.997900000000     0.770100000000     0          
O        O      0.888600000000     0.730833333333     0.822750000000     0          
O        O      0.542050000000     0.907100000000     0.637350000000     0          
O        O      0.984700000000     0.978133333333     0.657850000000     0          
O        O      0.977850000000     0.975600000000     0.787500000000     0          
O        O      0.576850000000     0.842333333333     0.683850000000     0          
O        O      0.829100000000     0.734533333333     0.771050000000     0          
T        Si     0.565600000000     0.901800000000     0.675650000000     0          
T        Si     0.996450000000     0.973066666667     0.699250000000     0          
T        Si     0.859600000000     0.696866666667     0.795150000000     0          
T        Si     0.935550000000     0.959733333333     0.762700000000     0          
O        O      0.719950000000     0.908900000000     0.954150000000     0          
O        O      0.799200000000     0.868966666667     0.971950000000     0          
O        O      0.856550000000     0.835433333333     0.520100000000     0          
O        O      0.861400000000     0.769166666667     0.572750000000     0          
O        O      0.707950000000     0.926233333333     0.887350000000     0          
O        O      0.765300000000     0.855200000000     0.907850000000     0          
O        O      0.772150000000     0.857733333333     0.537500000000     0          
O        O      0.673150000000     0.991000000000     0.933850000000     0          
O        O      0.920900000000     0.765466666667     0.521050000000     0          
T        Si     0.684400000000     0.931533333333     0.925650000000     0          
T        Si     0.753550000000     0.860266666667     0.949250000000     0          
T        Si     0.890400000000     0.803133333333     0.545150000000     0          
T        Si     0.814450000000     0.873600000000     0.512700000000     0          
O        O      0.719950000000     0.757766666667     0.704150000000     0          
O        O      0.799200000000     0.797700000000     0.721950000000     0          
O        O      0.856550000000     0.831233333333     0.770100000000     0          
O        O      0.861400000000     0.897500000000     0.822750000000     0          
O        O      0.707950000000     0.740433333333     0.637350000000     0          
O        O      0.765300000000     0.811466666667     0.657850000000     0          
O        O      0.772150000000     0.808933333333     0.787500000000     0          
O        O      0.673150000000     0.675666666667     0.683850000000     0          
O        O      0.920900000000     0.901200000000     0.771050000000     0          
T        Si     0.684400000000     0.735133333333     0.675650000000     0          
T        Si     0.753550000000     0.806400000000     0.699250000000     0          
T        Si     0.890400000000     0.863533333333     0.795150000000     0          
T        Si     0.814450000000     0.793066666667     0.762700000000     0          
T        Si     0.500000000000     0.724000000000     0.875000000000     0          
O        O      0.530050000000     0.742233333333     0.954150000000     0          
O        O      0.950800000000     0.702300000000     0.971950000000     0          
O        O      0.893450000000     0.668766666667     0.520100000000     0          
O        O      0.888600000000     0.935833333333     0.572750000000     0          
O        O      0.542050000000     0.759566666667     0.887350000000     0          
O        O      0.984700000000     0.688533333333     0.907850000000     0          
O        O      0.977850000000     0.691066666667     0.537500000000     0          
O        O      0.576850000000     0.824333333333     0.933850000000     0          
O        O      0.829100000000     0.932133333333     0.521050000000     0          
T        Si     0.565600000000     0.764866666667     0.925650000000     0          
T        Si     0.996450000000     0.693600000000     0.949250000000     0          
T        Si     0.859600000000     0.969800000000     0.545150000000     0          
T        Si     0.935550000000     0.706933333333     0.512700000000     0          
T        Si     0.750000000000     0.776000000000     0.625000000000     0          
O        O      0.969950000000     0.742233333333     0.795850000000     0          
O        O      0.549200000000     0.702300000000     0.778050000000     0          
O        O      0.606550000000     0.668766666667     0.729900000000     0          
O        O      0.611400000000     0.935833333333     0.677250000000     0          
O        O      0.957950000000     0.759566666667     0.862650000000     0          
O        O      0.515300000000     0.688533333333     0.842150000000     0          
O        O      0.522150000000     0.691066666667     0.712500000000     0          
O        O      0.923150000000     0.824333333333     0.816150000000     0          
O        O      0.670900000000     0.932133333333     0.728950000000     0          
T        Si     0.934400000000     0.764866666667     0.824350000000     0          
T        Si     0.503550000000     0.693600000000     0.800750000000     0          
T        Si     0.640400000000     0.969800000000     0.704850000000     0          
T        Si     0.564450000000     0.706933333333     0.737300000000     0          
O        O      0.780050000000     0.757766666667     0.545850000000     0          
O        O      0.700800000000     0.797700000000     0.528050000000     0          
O        O      0.643450000000     0.831233333333     0.979900000000     0          
O        O      0.638600000000     0.897500000000     0.927250000000     0          
O        O      0.792050000000     0.740433333333     0.612650000000     0          
O        O      0.734700000000     0.811466666667     0.592150000000     0          
O        O      0.727850000000     0.808933333333     0.962500000000     0          
O        O      0.826850000000     0.675666666667     0.566150000000     0          
O        O      0.579100000000     0.901200000000     0.978950000000     0          
T        Si     0.815600000000     0.735133333333     0.574350000000     0          
T        Si     0.746450000000     0.806400000000     0.550750000000     0          
T        Si     0.609600000000     0.863533333333     0.954850000000     0          
T        Si     0.685550000000     0.793066666667     0.987300000000     0          


