data_zeolite

_audit_creation_method RASPA-1.0
_audit_creation_date 2021-6-7
_audit_author_name ''

_cell_length_a    7.1158
_cell_length_b    9.1748
_cell_length_c    9.116
_cell_angle_alpha 84.645
_cell_angle_beta  83.816
_cell_angle_gamma 86.659
_cell_volume      21182.5

_symmetry_cell_setting          triclinic
_symmetry_space_group_name_Hall 'P 1'
_symmetry_space_group_name_H-M  'P 1'
_symmetry_Int_Tables_number     1

_symmetry_equiv_pos_as_xyz 'x,y,z'

loop_
_atom_site_label
_atom_site_type_symbol
_atom_site_fract_x
_atom_site_fract_y
_atom_site_fract_z
_atom_site_charge
T        Si     0.164900000000     0.118233333333     0.050166666667     0          
T        Si     0.059575000000     0.130366666667     0.029233333333     0          
T        Si     0.007225000000     0.274833333333     0.005533333333     0          
T        Si     0.009675000000     0.206500000000     0.099600000000     0          
T        Si     0.071275000000     0.184000000000     0.183333333333     0          
T        Si     0.085100000000     0.215100000000     0.283166666667     0          
T        Si     0.190425000000     0.202966666667     0.304100000000     0          
T        Si     0.242775000000     0.058500000000     0.327800000000     0          
T        Si     0.240325000000     0.126833333333     0.233733333333     0          
T        Si     0.178725000000     0.149333333333     0.150000000000     0          
T        Si     0.164900000000     0.118233333333     0.383500000000     0          
T        Si     0.059575000000     0.130366666667     0.362566666667     0          
T        Si     0.007225000000     0.274833333333     0.338866666667     0          
T        Si     0.009675000000     0.206500000000     0.432933333333     0          
T        Si     0.071275000000     0.184000000000     0.516666666667     0          
T        Si     0.085100000000     0.215100000000     0.616500000000     0          
T        Si     0.190425000000     0.202966666667     0.637433333333     0          
T        Si     0.242775000000     0.058500000000     0.661133333333     0          
T        Si     0.240325000000     0.126833333333     0.567066666667     0          
T        Si     0.178725000000     0.149333333333     0.483333333333     0          
T        Si     0.164900000000     0.118233333333     0.716833333333     0          
T        Si     0.059575000000     0.130366666667     0.695900000000     0          
T        Si     0.007225000000     0.274833333333     0.672200000000     0          
T        Si     0.009675000000     0.206500000000     0.766266666667     0          
T        Si     0.071275000000     0.184000000000     0.850000000000     0          
T        Si     0.085100000000     0.215100000000     0.949833333333     0          
T        Si     0.190425000000     0.202966666667     0.970766666667     0          
T        Si     0.242775000000     0.058500000000     0.994466666667     0          
T        Si     0.240325000000     0.126833333333     0.900400000000     0          
T        Si     0.178725000000     0.149333333333     0.816666666667     0          
T        Si     0.164900000000     0.451566666667     0.050166666667     0          
T        Si     0.059575000000     0.463700000000     0.029233333333     0          
T        Si     0.007225000000     0.608166666667     0.005533333333     0          
T        Si     0.009675000000     0.539833333333     0.099600000000     0          
T        Si     0.071275000000     0.517333333333     0.183333333333     0          
T        Si     0.085100000000     0.548433333333     0.283166666667     0          
T        Si     0.190425000000     0.536300000000     0.304100000000     0          
T        Si     0.242775000000     0.391833333333     0.327800000000     0          
T        Si     0.240325000000     0.460166666667     0.233733333333     0          
T        Si     0.178725000000     0.482666666667     0.150000000000     0          
T        Si     0.164900000000     0.451566666667     0.383500000000     0          
T        Si     0.059575000000     0.463700000000     0.362566666667     0          
T        Si     0.007225000000     0.608166666667     0.338866666667     0          
T        Si     0.009675000000     0.539833333333     0.432933333333     0          
T        Si     0.071275000000     0.517333333333     0.516666666667     0          
T        Si     0.085100000000     0.548433333333     0.616500000000     0          
T        Si     0.190425000000     0.536300000000     0.637433333333     0          
T        Si     0.242775000000     0.391833333333     0.661133333333     0          
T        Si     0.240325000000     0.460166666667     0.567066666667     0          
T        Si     0.178725000000     0.482666666667     0.483333333333     0          
T        Si     0.164900000000     0.451566666667     0.716833333333     0          
T        Si     0.059575000000     0.463700000000     0.695900000000     0          
T        Si     0.007225000000     0.608166666667     0.672200000000     0          
T        Si     0.009675000000     0.539833333333     0.766266666667     0          
T        Si     0.071275000000     0.517333333333     0.850000000000     0          
T        Si     0.085100000000     0.548433333333     0.949833333333     0          
T        Si     0.190425000000     0.536300000000     0.970766666667     0          
T        Si     0.242775000000     0.391833333333     0.994466666667     0          
T        Si     0.240325000000     0.460166666667     0.900400000000     0          
T        Si     0.178725000000     0.482666666667     0.816666666667     0          
T        Si     0.164900000000     0.784900000000     0.050166666667     0          
T        Si     0.059575000000     0.797033333333     0.029233333333     0          
T        Si     0.007225000000     0.941500000000     0.005533333333     0          
T        Si     0.009675000000     0.873166666667     0.099600000000     0          
T        Si     0.071275000000     0.850666666667     0.183333333333     0          
T        Si     0.085100000000     0.881766666667     0.283166666667     0          
T        Si     0.190425000000     0.869633333333     0.304100000000     0          
T        Si     0.242775000000     0.725166666667     0.327800000000     0          
T        Si     0.240325000000     0.793500000000     0.233733333333     0          
T        Si     0.178725000000     0.816000000000     0.150000000000     0          
T        Si     0.164900000000     0.784900000000     0.383500000000     0          
T        Si     0.059575000000     0.797033333333     0.362566666667     0          
T        Si     0.007225000000     0.941500000000     0.338866666667     0          
T        Si     0.009675000000     0.873166666667     0.432933333333     0          
T        Si     0.071275000000     0.850666666667     0.516666666667     0          
T        Si     0.085100000000     0.881766666667     0.616500000000     0          
T        Si     0.190425000000     0.869633333333     0.637433333333     0          
T        Si     0.242775000000     0.725166666667     0.661133333333     0          
T        Si     0.240325000000     0.793500000000     0.567066666667     0          
T        Si     0.178725000000     0.816000000000     0.483333333333     0          
T        Si     0.164900000000     0.784900000000     0.716833333333     0          
T        Si     0.059575000000     0.797033333333     0.695900000000     0          
T        Si     0.007225000000     0.941500000000     0.672200000000     0          
T        Si     0.009675000000     0.873166666667     0.766266666667     0          
T        Si     0.071275000000     0.850666666667     0.850000000000     0          
T        Si     0.085100000000     0.881766666667     0.949833333333     0          
T        Si     0.190425000000     0.869633333333     0.970766666667     0          
T        Si     0.242775000000     0.725166666667     0.994466666667     0          
T        Si     0.240325000000     0.793500000000     0.900400000000     0          
T        Si     0.178725000000     0.816000000000     0.816666666667     0          
T        Si     0.414900000000     0.118233333333     0.050166666667     0          
T        Si     0.309575000000     0.130366666667     0.029233333333     0          
T        Si     0.257225000000     0.274833333333     0.005533333333     0          
T        Si     0.259675000000     0.206500000000     0.099600000000     0          
T        Si     0.321275000000     0.184000000000     0.183333333333     0          
T        Si     0.335100000000     0.215100000000     0.283166666667     0          
T        Si     0.440425000000     0.202966666667     0.304100000000     0          
T        Si     0.492775000000     0.058500000000     0.327800000000     0          
T        Si     0.490325000000     0.126833333333     0.233733333333     0          
T        Si     0.428725000000     0.149333333333     0.150000000000     0          
T        Si     0.414900000000     0.118233333333     0.383500000000     0          
T        Si     0.309575000000     0.130366666667     0.362566666667     0          
T        Si     0.257225000000     0.274833333333     0.338866666667     0          
T        Si     0.259675000000     0.206500000000     0.432933333333     0          
T        Si     0.321275000000     0.184000000000     0.516666666667     0          
T        Si     0.335100000000     0.215100000000     0.616500000000     0          
T        Si     0.440425000000     0.202966666667     0.637433333333     0          
T        Si     0.492775000000     0.058500000000     0.661133333333     0          
T        Si     0.490325000000     0.126833333333     0.567066666667     0          
T        Si     0.428725000000     0.149333333333     0.483333333333     0          
T        Si     0.414900000000     0.118233333333     0.716833333333     0          
T        Si     0.309575000000     0.130366666667     0.695900000000     0          
T        Si     0.257225000000     0.274833333333     0.672200000000     0          
T        Si     0.259675000000     0.206500000000     0.766266666667     0          
T        Si     0.321275000000     0.184000000000     0.850000000000     0          
T        Si     0.335100000000     0.215100000000     0.949833333333     0          
T        Si     0.440425000000     0.202966666667     0.970766666667     0          
T        Si     0.492775000000     0.058500000000     0.994466666667     0          
T        Si     0.490325000000     0.126833333333     0.900400000000     0          
T        Si     0.428725000000     0.149333333333     0.816666666667     0          
T        Si     0.414900000000     0.451566666667     0.050166666667     0          
T        Si     0.309575000000     0.463700000000     0.029233333333     0          
T        Si     0.257225000000     0.608166666667     0.005533333333     0          
T        Si     0.259675000000     0.539833333333     0.099600000000     0          
T        Si     0.321275000000     0.517333333333     0.183333333333     0          
T        Si     0.335100000000     0.548433333333     0.283166666667     0          
T        Si     0.440425000000     0.536300000000     0.304100000000     0          
T        Si     0.492775000000     0.391833333333     0.327800000000     0          
T        Si     0.490325000000     0.460166666667     0.233733333333     0          
T        Si     0.428725000000     0.482666666667     0.150000000000     0          
T        Si     0.414900000000     0.451566666667     0.383500000000     0          
T        Si     0.309575000000     0.463700000000     0.362566666667     0          
T        Si     0.257225000000     0.608166666667     0.338866666667     0          
T        Si     0.259675000000     0.539833333333     0.432933333333     0          
T        Si     0.321275000000     0.517333333333     0.516666666667     0          
T        Si     0.335100000000     0.548433333333     0.616500000000     0          
T        Si     0.440425000000     0.536300000000     0.637433333333     0          
T        Si     0.492775000000     0.391833333333     0.661133333333     0          
T        Si     0.490325000000     0.460166666667     0.567066666667     0          
T        Si     0.428725000000     0.482666666667     0.483333333333     0          
T        Si     0.414900000000     0.451566666667     0.716833333333     0          
T        Si     0.309575000000     0.463700000000     0.695900000000     0          
T        Si     0.257225000000     0.608166666667     0.672200000000     0          
T        Si     0.259675000000     0.539833333333     0.766266666667     0          
T        Si     0.321275000000     0.517333333333     0.850000000000     0          
T        Si     0.335100000000     0.548433333333     0.949833333333     0          
T        Si     0.440425000000     0.536300000000     0.970766666667     0          
T        Si     0.492775000000     0.391833333333     0.994466666667     0          
T        Si     0.490325000000     0.460166666667     0.900400000000     0          
T        Si     0.428725000000     0.482666666667     0.816666666667     0          
T        Si     0.414900000000     0.784900000000     0.050166666667     0          
T        Si     0.309575000000     0.797033333333     0.029233333333     0          
T        Si     0.257225000000     0.941500000000     0.005533333333     0          
T        Si     0.259675000000     0.873166666667     0.099600000000     0          
T        Si     0.321275000000     0.850666666667     0.183333333333     0          
T        Si     0.335100000000     0.881766666667     0.283166666667     0          
T        Si     0.440425000000     0.869633333333     0.304100000000     0          
T        Si     0.492775000000     0.725166666667     0.327800000000     0          
T        Si     0.490325000000     0.793500000000     0.233733333333     0          
T        Si     0.428725000000     0.816000000000     0.150000000000     0          
T        Si     0.414900000000     0.784900000000     0.383500000000     0          
T        Si     0.309575000000     0.797033333333     0.362566666667     0          
T        Si     0.257225000000     0.941500000000     0.338866666667     0          
T        Si     0.259675000000     0.873166666667     0.432933333333     0          
T        Si     0.321275000000     0.850666666667     0.516666666667     0          
T        Si     0.335100000000     0.881766666667     0.616500000000     0          
T        Si     0.440425000000     0.869633333333     0.637433333333     0          
T        Si     0.492775000000     0.725166666667     0.661133333333     0          
T        Si     0.490325000000     0.793500000000     0.567066666667     0          
T        Si     0.428725000000     0.816000000000     0.483333333333     0          
T        Si     0.414900000000     0.784900000000     0.716833333333     0          
T        Si     0.309575000000     0.797033333333     0.695900000000     0          
T        Si     0.257225000000     0.941500000000     0.672200000000     0          
T        Si     0.259675000000     0.873166666667     0.766266666667     0          
T        Si     0.321275000000     0.850666666667     0.850000000000     0          
T        Si     0.335100000000     0.881766666667     0.949833333333     0          
T        Si     0.440425000000     0.869633333333     0.970766666667     0          
T        Si     0.492775000000     0.725166666667     0.994466666667     0          
T        Si     0.490325000000     0.793500000000     0.900400000000     0          
T        Si     0.428725000000     0.816000000000     0.816666666667     0          
T        Si     0.664900000000     0.118233333333     0.050166666667     0          
T        Si     0.559575000000     0.130366666667     0.029233333333     0          
T        Si     0.507225000000     0.274833333333     0.005533333333     0          
T        Si     0.509675000000     0.206500000000     0.099600000000     0          
T        Si     0.571275000000     0.184000000000     0.183333333333     0          
T        Si     0.585100000000     0.215100000000     0.283166666667     0          
T        Si     0.690425000000     0.202966666667     0.304100000000     0          
T        Si     0.742775000000     0.058500000000     0.327800000000     0          
T        Si     0.740325000000     0.126833333333     0.233733333333     0          
T        Si     0.678725000000     0.149333333333     0.150000000000     0          
T        Si     0.664900000000     0.118233333333     0.383500000000     0          
T        Si     0.559575000000     0.130366666667     0.362566666667     0          
T        Si     0.507225000000     0.274833333333     0.338866666667     0          
T        Si     0.509675000000     0.206500000000     0.432933333333     0          
T        Si     0.571275000000     0.184000000000     0.516666666667     0          
T        Si     0.585100000000     0.215100000000     0.616500000000     0          
T        Si     0.690425000000     0.202966666667     0.637433333333     0          
T        Si     0.742775000000     0.058500000000     0.661133333333     0          
T        Si     0.740325000000     0.126833333333     0.567066666667     0          
T        Si     0.678725000000     0.149333333333     0.483333333333     0          
T        Si     0.664900000000     0.118233333333     0.716833333333     0          
T        Si     0.559575000000     0.130366666667     0.695900000000     0          
T        Si     0.507225000000     0.274833333333     0.672200000000     0          
T        Si     0.509675000000     0.206500000000     0.766266666667     0          
T        Si     0.571275000000     0.184000000000     0.850000000000     0          
T        Si     0.585100000000     0.215100000000     0.949833333333     0          
T        Si     0.690425000000     0.202966666667     0.970766666667     0          
T        Si     0.742775000000     0.058500000000     0.994466666667     0          
T        Si     0.740325000000     0.126833333333     0.900400000000     0          
T        Si     0.678725000000     0.149333333333     0.816666666667     0          
T        Si     0.664900000000     0.451566666667     0.050166666667     0          
T        Si     0.559575000000     0.463700000000     0.029233333333     0          
T        Si     0.507225000000     0.608166666667     0.005533333333     0          
T        Si     0.509675000000     0.539833333333     0.099600000000     0          
T        Si     0.571275000000     0.517333333333     0.183333333333     0          
T        Si     0.585100000000     0.548433333333     0.283166666667     0          
T        Si     0.690425000000     0.536300000000     0.304100000000     0          
T        Si     0.742775000000     0.391833333333     0.327800000000     0          
T        Si     0.740325000000     0.460166666667     0.233733333333     0          
T        Si     0.678725000000     0.482666666667     0.150000000000     0          
T        Si     0.664900000000     0.451566666667     0.383500000000     0          
T        Si     0.559575000000     0.463700000000     0.362566666667     0          
T        Si     0.507225000000     0.608166666667     0.338866666667     0          
T        Si     0.509675000000     0.539833333333     0.432933333333     0          
T        Si     0.571275000000     0.517333333333     0.516666666667     0          
T        Si     0.585100000000     0.548433333333     0.616500000000     0          
T        Si     0.690425000000     0.536300000000     0.637433333333     0          
T        Si     0.742775000000     0.391833333333     0.661133333333     0          
T        Si     0.740325000000     0.460166666667     0.567066666667     0          
T        Si     0.678725000000     0.482666666667     0.483333333333     0          
T        Si     0.664900000000     0.451566666667     0.716833333333     0          
T        Si     0.559575000000     0.463700000000     0.695900000000     0          
T        Si     0.507225000000     0.608166666667     0.672200000000     0          
T        Si     0.509675000000     0.539833333333     0.766266666667     0          
T        Si     0.571275000000     0.517333333333     0.850000000000     0          
T        Si     0.585100000000     0.548433333333     0.949833333333     0          
T        Si     0.690425000000     0.536300000000     0.970766666667     0          
T        Si     0.742775000000     0.391833333333     0.994466666667     0          
T        Si     0.740325000000     0.460166666667     0.900400000000     0          
T        Si     0.678725000000     0.482666666667     0.816666666667     0          
T        Si     0.664900000000     0.784900000000     0.050166666667     0          
T        Si     0.559575000000     0.797033333333     0.029233333333     0          
T        Si     0.507225000000     0.941500000000     0.005533333333     0          
T        Si     0.509675000000     0.873166666667     0.099600000000     0          
T        Si     0.571275000000     0.850666666667     0.183333333333     0          
T        Si     0.585100000000     0.881766666667     0.283166666667     0          
T        Si     0.690425000000     0.869633333333     0.304100000000     0          
T        Si     0.742775000000     0.725166666667     0.327800000000     0          
T        Si     0.740325000000     0.793500000000     0.233733333333     0          
T        Si     0.678725000000     0.816000000000     0.150000000000     0          
T        Si     0.664900000000     0.784900000000     0.383500000000     0          
T        Si     0.559575000000     0.797033333333     0.362566666667     0          
T        Si     0.507225000000     0.941500000000     0.338866666667     0          
T        Si     0.509675000000     0.873166666667     0.432933333333     0          
T        Si     0.571275000000     0.850666666667     0.516666666667     0          
T        Si     0.585100000000     0.881766666667     0.616500000000     0          
T        Si     0.690425000000     0.869633333333     0.637433333333     0          
T        Si     0.742775000000     0.725166666667     0.661133333333     0          
T        Si     0.740325000000     0.793500000000     0.567066666667     0          
T        Si     0.678725000000     0.816000000000     0.483333333333     0          
T        Si     0.664900000000     0.784900000000     0.716833333333     0          
T        Si     0.559575000000     0.797033333333     0.695900000000     0          
T        Si     0.507225000000     0.941500000000     0.672200000000     0          
T        Si     0.509675000000     0.873166666667     0.766266666667     0          
T        Si     0.571275000000     0.850666666667     0.850000000000     0          
T        Si     0.585100000000     0.881766666667     0.949833333333     0          
T        Si     0.690425000000     0.869633333333     0.970766666667     0          
T        Si     0.742775000000     0.725166666667     0.994466666667     0          
T        Si     0.740325000000     0.793500000000     0.900400000000     0          
T        Si     0.678725000000     0.816000000000     0.816666666667     0          
T        Si     0.914900000000     0.118233333333     0.050166666667     0          
T        Si     0.809575000000     0.130366666667     0.029233333333     0          
T        Si     0.757225000000     0.274833333333     0.005533333333     0          
T        Si     0.759675000000     0.206500000000     0.099600000000     0          
T        Si     0.821275000000     0.184000000000     0.183333333333     0          
T        Si     0.835100000000     0.215100000000     0.283166666667     0          
T        Si     0.940425000000     0.202966666667     0.304100000000     0          
T        Si     0.992775000000     0.058500000000     0.327800000000     0          
T        Si     0.990325000000     0.126833333333     0.233733333333     0          
T        Si     0.928725000000     0.149333333333     0.150000000000     0          
T        Si     0.914900000000     0.118233333333     0.383500000000     0          
T        Si     0.809575000000     0.130366666667     0.362566666667     0          
T        Si     0.757225000000     0.274833333333     0.338866666667     0          
T        Si     0.759675000000     0.206500000000     0.432933333333     0          
T        Si     0.821275000000     0.184000000000     0.516666666667     0          
T        Si     0.835100000000     0.215100000000     0.616500000000     0          
T        Si     0.940425000000     0.202966666667     0.637433333333     0          
T        Si     0.992775000000     0.058500000000     0.661133333333     0          
T        Si     0.990325000000     0.126833333333     0.567066666667     0          
T        Si     0.928725000000     0.149333333333     0.483333333333     0          
T        Si     0.914900000000     0.118233333333     0.716833333333     0          
T        Si     0.809575000000     0.130366666667     0.695900000000     0          
T        Si     0.757225000000     0.274833333333     0.672200000000     0          
T        Si     0.759675000000     0.206500000000     0.766266666667     0          
T        Si     0.821275000000     0.184000000000     0.850000000000     0          
T        Si     0.835100000000     0.215100000000     0.949833333333     0          
T        Si     0.940425000000     0.202966666667     0.970766666667     0          
T        Si     0.992775000000     0.058500000000     0.994466666667     0          
T        Si     0.990325000000     0.126833333333     0.900400000000     0          
T        Si     0.928725000000     0.149333333333     0.816666666667     0          
T        Si     0.914900000000     0.451566666667     0.050166666667     0          
T        Si     0.809575000000     0.463700000000     0.029233333333     0          
T        Si     0.757225000000     0.608166666667     0.005533333333     0          
T        Si     0.759675000000     0.539833333333     0.099600000000     0          
T        Si     0.821275000000     0.517333333333     0.183333333333     0          
T        Si     0.835100000000     0.548433333333     0.283166666667     0          
T        Si     0.940425000000     0.536300000000     0.304100000000     0          
T        Si     0.992775000000     0.391833333333     0.327800000000     0          
T        Si     0.990325000000     0.460166666667     0.233733333333     0          
T        Si     0.928725000000     0.482666666667     0.150000000000     0          
T        Si     0.914900000000     0.451566666667     0.383500000000     0          
T        Si     0.809575000000     0.463700000000     0.362566666667     0          
T        Si     0.757225000000     0.608166666667     0.338866666667     0          
T        Si     0.759675000000     0.539833333333     0.432933333333     0          
T        Si     0.821275000000     0.517333333333     0.516666666667     0          
T        Si     0.835100000000     0.548433333333     0.616500000000     0          
T        Si     0.940425000000     0.536300000000     0.637433333333     0          
T        Si     0.992775000000     0.391833333333     0.661133333333     0          
T        Si     0.990325000000     0.460166666667     0.567066666667     0          
T        Si     0.928725000000     0.482666666667     0.483333333333     0          
T        Si     0.914900000000     0.451566666667     0.716833333333     0          
T        Si     0.809575000000     0.463700000000     0.695900000000     0          
T        Si     0.757225000000     0.608166666667     0.672200000000     0          
T        Si     0.759675000000     0.539833333333     0.766266666667     0          
T        Si     0.821275000000     0.517333333333     0.850000000000     0          
T        Si     0.835100000000     0.548433333333     0.949833333333     0          
T        Si     0.940425000000     0.536300000000     0.970766666667     0          
T        Si     0.992775000000     0.391833333333     0.994466666667     0          
T        Si     0.990325000000     0.460166666667     0.900400000000     0          
T        Si     0.928725000000     0.482666666667     0.816666666667     0          
T        Si     0.914900000000     0.784900000000     0.050166666667     0          
T        Si     0.809575000000     0.797033333333     0.029233333333     0          
T        Si     0.757225000000     0.941500000000     0.005533333333     0          
T        Si     0.759675000000     0.873166666667     0.099600000000     0          
T        Si     0.821275000000     0.850666666667     0.183333333333     0          
T        Si     0.835100000000     0.881766666667     0.283166666667     0          
T        Si     0.940425000000     0.869633333333     0.304100000000     0          
T        Si     0.992775000000     0.725166666667     0.327800000000     0          
T        Si     0.990325000000     0.793500000000     0.233733333333     0          
T        Si     0.928725000000     0.816000000000     0.150000000000     0          
T        Si     0.914900000000     0.784900000000     0.383500000000     0          
T        Si     0.809575000000     0.797033333333     0.362566666667     0          
T        Si     0.757225000000     0.941500000000     0.338866666667     0          
T        Si     0.759675000000     0.873166666667     0.432933333333     0          
T        Si     0.821275000000     0.850666666667     0.516666666667     0          
T        Si     0.835100000000     0.881766666667     0.616500000000     0          
T        Si     0.940425000000     0.869633333333     0.637433333333     0          
T        Si     0.992775000000     0.725166666667     0.661133333333     0          
T        Si     0.990325000000     0.793500000000     0.567066666667     0          
T        Si     0.928725000000     0.816000000000     0.483333333333     0          
T        Si     0.914900000000     0.784900000000     0.716833333333     0          
T        Si     0.809575000000     0.797033333333     0.695900000000     0          
T        Si     0.757225000000     0.941500000000     0.672200000000     0          
T        Si     0.759675000000     0.873166666667     0.766266666667     0          
T        Si     0.821275000000     0.850666666667     0.850000000000     0          
T        Si     0.835100000000     0.881766666667     0.949833333333     0          
T        Si     0.940425000000     0.869633333333     0.970766666667     0          
T        Si     0.992775000000     0.725166666667     0.994466666667     0          
T        Si     0.990325000000     0.793500000000     0.900400000000     0          
T        Si     0.928725000000     0.816000000000     0.816666666667     0          
O        O      0.179475000000     0.114466666667     0.105733333333     0          
O        O      0.179825000000     0.169933333333     0.022100000000     0          
O        O      0.191850000000     0.074566666667     0.021400000000     0          
O        O      0.026000000000     0.161033333333     0.067733333333     0          
O        O      0.033625000000     0.082233333333     0.019533333333     0          
O        O      0.004625000000     0.255500000000     0.063133333333     0          
O        O      0.040650000000     0.137333333333     0.202733333333     0          
O        O      0.048200000000     0.213066666667     0.137166666667     0          
O        O      0.108575000000     0.114033333333     0.051866666667     0          
O        O      0.000000000000     0.000000000000     0.000000000000     0          
O        O      0.125000000000     0.166666666667     0.166666666667     0          
O        O      0.070525000000     0.218866666667     0.227600000000     0          
O        O      0.070175000000     0.163400000000     0.311233333333     0          
O        O      0.058150000000     0.258766666667     0.311933333333     0          
O        O      0.224000000000     0.172300000000     0.265600000000     0          
O        O      0.216375000000     0.251100000000     0.313800000000     0          
O        O      0.245375000000     0.077833333333     0.270200000000     0          
O        O      0.209350000000     0.196000000000     0.130600000000     0          
O        O      0.201800000000     0.120266666667     0.196166666667     0          
O        O      0.141425000000     0.219300000000     0.281466666667     0          
O        O      0.179475000000     0.114466666667     0.439066666667     0          
O        O      0.179825000000     0.169933333333     0.355433333333     0          
O        O      0.191850000000     0.074566666667     0.354733333333     0          
O        O      0.026000000000     0.161033333333     0.401066666667     0          
O        O      0.033625000000     0.082233333333     0.352866666667     0          
O        O      0.004625000000     0.255500000000     0.396466666667     0          
O        O      0.040650000000     0.137333333333     0.536066666667     0          
O        O      0.048200000000     0.213066666667     0.470500000000     0          
O        O      0.108575000000     0.114033333333     0.385200000000     0          
O        O      0.000000000000     0.000000000000     0.333333333333     0          
O        O      0.125000000000     0.166666666667     0.500000000000     0          
O        O      0.070525000000     0.218866666667     0.560933333333     0          
O        O      0.070175000000     0.163400000000     0.644566666667     0          
O        O      0.058150000000     0.258766666667     0.645266666667     0          
O        O      0.224000000000     0.172300000000     0.598933333333     0          
O        O      0.216375000000     0.251100000000     0.647133333333     0          
O        O      0.245375000000     0.077833333333     0.603533333333     0          
O        O      0.209350000000     0.196000000000     0.463933333333     0          
O        O      0.201800000000     0.120266666667     0.529500000000     0          
O        O      0.141425000000     0.219300000000     0.614800000000     0          
O        O      0.179475000000     0.114466666667     0.772400000000     0          
O        O      0.179825000000     0.169933333333     0.688766666667     0          
O        O      0.191850000000     0.074566666667     0.688066666667     0          
O        O      0.026000000000     0.161033333333     0.734400000000     0          
O        O      0.033625000000     0.082233333333     0.686200000000     0          
O        O      0.004625000000     0.255500000000     0.729800000000     0          
O        O      0.040650000000     0.137333333333     0.869400000000     0          
O        O      0.048200000000     0.213066666667     0.803833333333     0          
O        O      0.108575000000     0.114033333333     0.718533333333     0          
O        O      0.000000000000     0.000000000000     0.666666666667     0          
O        O      0.125000000000     0.166666666667     0.833333333333     0          
O        O      0.070525000000     0.218866666667     0.894266666667     0          
O        O      0.070175000000     0.163400000000     0.977900000000     0          
O        O      0.058150000000     0.258766666667     0.978600000000     0          
O        O      0.224000000000     0.172300000000     0.932266666667     0          
O        O      0.216375000000     0.251100000000     0.980466666667     0          
O        O      0.245375000000     0.077833333333     0.936866666667     0          
O        O      0.209350000000     0.196000000000     0.797266666667     0          
O        O      0.201800000000     0.120266666667     0.862833333333     0          
O        O      0.141425000000     0.219300000000     0.948133333333     0          
O        O      0.179475000000     0.447800000000     0.105733333333     0          
O        O      0.179825000000     0.503266666667     0.022100000000     0          
O        O      0.191850000000     0.407900000000     0.021400000000     0          
O        O      0.026000000000     0.494366666667     0.067733333333     0          
O        O      0.033625000000     0.415566666667     0.019533333333     0          
O        O      0.004625000000     0.588833333333     0.063133333333     0          
O        O      0.040650000000     0.470666666667     0.202733333333     0          
O        O      0.048200000000     0.546400000000     0.137166666667     0          
O        O      0.108575000000     0.447366666667     0.051866666667     0          
O        O      0.000000000000     0.333333333333     0.000000000000     0          
O        O      0.125000000000     0.500000000000     0.166666666667     0          
O        O      0.070525000000     0.552200000000     0.227600000000     0          
O        O      0.070175000000     0.496733333333     0.311233333333     0          
O        O      0.058150000000     0.592100000000     0.311933333333     0          
O        O      0.224000000000     0.505633333333     0.265600000000     0          
O        O      0.216375000000     0.584433333333     0.313800000000     0          
O        O      0.245375000000     0.411166666667     0.270200000000     0          
O        O      0.209350000000     0.529333333333     0.130600000000     0          
O        O      0.201800000000     0.453600000000     0.196166666667     0          
O        O      0.141425000000     0.552633333333     0.281466666667     0          
O        O      0.179475000000     0.447800000000     0.439066666667     0          
O        O      0.179825000000     0.503266666667     0.355433333333     0          
O        O      0.191850000000     0.407900000000     0.354733333333     0          
O        O      0.026000000000     0.494366666667     0.401066666667     0          
O        O      0.033625000000     0.415566666667     0.352866666667     0          
O        O      0.004625000000     0.588833333333     0.396466666667     0          
O        O      0.040650000000     0.470666666667     0.536066666667     0          
O        O      0.048200000000     0.546400000000     0.470500000000     0          
O        O      0.108575000000     0.447366666667     0.385200000000     0          
O        O      0.000000000000     0.333333333333     0.333333333333     0          
O        O      0.125000000000     0.500000000000     0.500000000000     0          
O        O      0.070525000000     0.552200000000     0.560933333333     0          
O        O      0.070175000000     0.496733333333     0.644566666667     0          
O        O      0.058150000000     0.592100000000     0.645266666667     0          
O        O      0.224000000000     0.505633333333     0.598933333333     0          
O        O      0.216375000000     0.584433333333     0.647133333333     0          
O        O      0.245375000000     0.411166666667     0.603533333333     0          
O        O      0.209350000000     0.529333333333     0.463933333333     0          
O        O      0.201800000000     0.453600000000     0.529500000000     0          
O        O      0.141425000000     0.552633333333     0.614800000000     0          
O        O      0.179475000000     0.447800000000     0.772400000000     0          
O        O      0.179825000000     0.503266666667     0.688766666667     0          
O        O      0.191850000000     0.407900000000     0.688066666667     0          
O        O      0.026000000000     0.494366666667     0.734400000000     0          
O        O      0.033625000000     0.415566666667     0.686200000000     0          
O        O      0.004625000000     0.588833333333     0.729800000000     0          
O        O      0.040650000000     0.470666666667     0.869400000000     0          
O        O      0.048200000000     0.546400000000     0.803833333333     0          
O        O      0.108575000000     0.447366666667     0.718533333333     0          
O        O      0.000000000000     0.333333333333     0.666666666667     0          
O        O      0.125000000000     0.500000000000     0.833333333333     0          
O        O      0.070525000000     0.552200000000     0.894266666667     0          
O        O      0.070175000000     0.496733333333     0.977900000000     0          
O        O      0.058150000000     0.592100000000     0.978600000000     0          
O        O      0.224000000000     0.505633333333     0.932266666667     0          
O        O      0.216375000000     0.584433333333     0.980466666667     0          
O        O      0.245375000000     0.411166666667     0.936866666667     0          
O        O      0.209350000000     0.529333333333     0.797266666667     0          
O        O      0.201800000000     0.453600000000     0.862833333333     0          
O        O      0.141425000000     0.552633333333     0.948133333333     0          
O        O      0.179475000000     0.781133333333     0.105733333333     0          
O        O      0.179825000000     0.836600000000     0.022100000000     0          
O        O      0.191850000000     0.741233333333     0.021400000000     0          
O        O      0.026000000000     0.827700000000     0.067733333333     0          
O        O      0.033625000000     0.748900000000     0.019533333333     0          
O        O      0.004625000000     0.922166666667     0.063133333333     0          
O        O      0.040650000000     0.804000000000     0.202733333333     0          
O        O      0.048200000000     0.879733333333     0.137166666667     0          
O        O      0.108575000000     0.780700000000     0.051866666667     0          
O        O      0.000000000000     0.666666666667     0.000000000000     0          
O        O      0.125000000000     0.833333333333     0.166666666667     0          
O        O      0.070525000000     0.885533333333     0.227600000000     0          
O        O      0.070175000000     0.830066666667     0.311233333333     0          
O        O      0.058150000000     0.925433333333     0.311933333333     0          
O        O      0.224000000000     0.838966666667     0.265600000000     0          
O        O      0.216375000000     0.917766666667     0.313800000000     0          
O        O      0.245375000000     0.744500000000     0.270200000000     0          
O        O      0.209350000000     0.862666666667     0.130600000000     0          
O        O      0.201800000000     0.786933333333     0.196166666667     0          
O        O      0.141425000000     0.885966666667     0.281466666667     0          
O        O      0.179475000000     0.781133333333     0.439066666667     0          
O        O      0.179825000000     0.836600000000     0.355433333333     0          
O        O      0.191850000000     0.741233333333     0.354733333333     0          
O        O      0.026000000000     0.827700000000     0.401066666667     0          
O        O      0.033625000000     0.748900000000     0.352866666667     0          
O        O      0.004625000000     0.922166666667     0.396466666667     0          
O        O      0.040650000000     0.804000000000     0.536066666667     0          
O        O      0.048200000000     0.879733333333     0.470500000000     0          
O        O      0.108575000000     0.780700000000     0.385200000000     0          
O        O      0.000000000000     0.666666666667     0.333333333333     0          
O        O      0.125000000000     0.833333333333     0.500000000000     0          
O        O      0.070525000000     0.885533333333     0.560933333333     0          
O        O      0.070175000000     0.830066666667     0.644566666667     0          
O        O      0.058150000000     0.925433333333     0.645266666667     0          
O        O      0.224000000000     0.838966666667     0.598933333333     0          
O        O      0.216375000000     0.917766666667     0.647133333333     0          
O        O      0.245375000000     0.744500000000     0.603533333333     0          
O        O      0.209350000000     0.862666666667     0.463933333333     0          
O        O      0.201800000000     0.786933333333     0.529500000000     0          
O        O      0.141425000000     0.885966666667     0.614800000000     0          
O        O      0.179475000000     0.781133333333     0.772400000000     0          
O        O      0.179825000000     0.836600000000     0.688766666667     0          
O        O      0.191850000000     0.741233333333     0.688066666667     0          
O        O      0.026000000000     0.827700000000     0.734400000000     0          
O        O      0.033625000000     0.748900000000     0.686200000000     0          
O        O      0.004625000000     0.922166666667     0.729800000000     0          
O        O      0.040650000000     0.804000000000     0.869400000000     0          
O        O      0.048200000000     0.879733333333     0.803833333333     0          
O        O      0.108575000000     0.780700000000     0.718533333333     0          
O        O      0.000000000000     0.666666666667     0.666666666667     0          
O        O      0.125000000000     0.833333333333     0.833333333333     0          
O        O      0.070525000000     0.885533333333     0.894266666667     0          
O        O      0.070175000000     0.830066666667     0.977900000000     0          
O        O      0.058150000000     0.925433333333     0.978600000000     0          
O        O      0.224000000000     0.838966666667     0.932266666667     0          
O        O      0.216375000000     0.917766666667     0.980466666667     0          
O        O      0.245375000000     0.744500000000     0.936866666667     0          
O        O      0.209350000000     0.862666666667     0.797266666667     0          
O        O      0.201800000000     0.786933333333     0.862833333333     0          
O        O      0.141425000000     0.885966666667     0.948133333333     0          
O        O      0.429475000000     0.114466666667     0.105733333333     0          
O        O      0.429825000000     0.169933333333     0.022100000000     0          
O        O      0.441850000000     0.074566666667     0.021400000000     0          
O        O      0.276000000000     0.161033333333     0.067733333333     0          
O        O      0.283625000000     0.082233333333     0.019533333333     0          
O        O      0.254625000000     0.255500000000     0.063133333333     0          
O        O      0.290650000000     0.137333333333     0.202733333333     0          
O        O      0.298200000000     0.213066666667     0.137166666667     0          
O        O      0.358575000000     0.114033333333     0.051866666667     0          
O        O      0.250000000000     0.000000000000     0.000000000000     0          
O        O      0.375000000000     0.166666666667     0.166666666667     0          
O        O      0.320525000000     0.218866666667     0.227600000000     0          
O        O      0.320175000000     0.163400000000     0.311233333333     0          
O        O      0.308150000000     0.258766666667     0.311933333333     0          
O        O      0.474000000000     0.172300000000     0.265600000000     0          
O        O      0.466375000000     0.251100000000     0.313800000000     0          
O        O      0.495375000000     0.077833333333     0.270200000000     0          
O        O      0.459350000000     0.196000000000     0.130600000000     0          
O        O      0.451800000000     0.120266666667     0.196166666667     0          
O        O      0.391425000000     0.219300000000     0.281466666667     0          
O        O      0.429475000000     0.114466666667     0.439066666667     0          
O        O      0.429825000000     0.169933333333     0.355433333333     0          
O        O      0.441850000000     0.074566666667     0.354733333333     0          
O        O      0.276000000000     0.161033333333     0.401066666667     0          
O        O      0.283625000000     0.082233333333     0.352866666667     0          
O        O      0.254625000000     0.255500000000     0.396466666667     0          
O        O      0.290650000000     0.137333333333     0.536066666667     0          
O        O      0.298200000000     0.213066666667     0.470500000000     0          
O        O      0.358575000000     0.114033333333     0.385200000000     0          
O        O      0.250000000000     0.000000000000     0.333333333333     0          
O        O      0.375000000000     0.166666666667     0.500000000000     0          
O        O      0.320525000000     0.218866666667     0.560933333333     0          
O        O      0.320175000000     0.163400000000     0.644566666667     0          
O        O      0.308150000000     0.258766666667     0.645266666667     0          
O        O      0.474000000000     0.172300000000     0.598933333333     0          
O        O      0.466375000000     0.251100000000     0.647133333333     0          
O        O      0.495375000000     0.077833333333     0.603533333333     0          
O        O      0.459350000000     0.196000000000     0.463933333333     0          
O        O      0.451800000000     0.120266666667     0.529500000000     0          
O        O      0.391425000000     0.219300000000     0.614800000000     0          
O        O      0.429475000000     0.114466666667     0.772400000000     0          
O        O      0.429825000000     0.169933333333     0.688766666667     0          
O        O      0.441850000000     0.074566666667     0.688066666667     0          
O        O      0.276000000000     0.161033333333     0.734400000000     0          
O        O      0.283625000000     0.082233333333     0.686200000000     0          
O        O      0.254625000000     0.255500000000     0.729800000000     0          
O        O      0.290650000000     0.137333333333     0.869400000000     0          
O        O      0.298200000000     0.213066666667     0.803833333333     0          
O        O      0.358575000000     0.114033333333     0.718533333333     0          
O        O      0.250000000000     0.000000000000     0.666666666667     0          
O        O      0.375000000000     0.166666666667     0.833333333333     0          
O        O      0.320525000000     0.218866666667     0.894266666667     0          
O        O      0.320175000000     0.163400000000     0.977900000000     0          
O        O      0.308150000000     0.258766666667     0.978600000000     0          
O        O      0.474000000000     0.172300000000     0.932266666667     0          
O        O      0.466375000000     0.251100000000     0.980466666667     0          
O        O      0.495375000000     0.077833333333     0.936866666667     0          
O        O      0.459350000000     0.196000000000     0.797266666667     0          
O        O      0.451800000000     0.120266666667     0.862833333333     0          
O        O      0.391425000000     0.219300000000     0.948133333333     0          
O        O      0.429475000000     0.447800000000     0.105733333333     0          
O        O      0.429825000000     0.503266666667     0.022100000000     0          
O        O      0.441850000000     0.407900000000     0.021400000000     0          
O        O      0.276000000000     0.494366666667     0.067733333333     0          
O        O      0.283625000000     0.415566666667     0.019533333333     0          
O        O      0.254625000000     0.588833333333     0.063133333333     0          
O        O      0.290650000000     0.470666666667     0.202733333333     0          
O        O      0.298200000000     0.546400000000     0.137166666667     0          
O        O      0.358575000000     0.447366666667     0.051866666667     0          
O        O      0.250000000000     0.333333333333     0.000000000000     0          
O        O      0.375000000000     0.500000000000     0.166666666667     0          
O        O      0.320525000000     0.552200000000     0.227600000000     0          
O        O      0.320175000000     0.496733333333     0.311233333333     0          
O        O      0.308150000000     0.592100000000     0.311933333333     0          
O        O      0.474000000000     0.505633333333     0.265600000000     0          
O        O      0.466375000000     0.584433333333     0.313800000000     0          
O        O      0.495375000000     0.411166666667     0.270200000000     0          
O        O      0.459350000000     0.529333333333     0.130600000000     0          
O        O      0.451800000000     0.453600000000     0.196166666667     0          
O        O      0.391425000000     0.552633333333     0.281466666667     0          
O        O      0.429475000000     0.447800000000     0.439066666667     0          
O        O      0.429825000000     0.503266666667     0.355433333333     0          
O        O      0.441850000000     0.407900000000     0.354733333333     0          
O        O      0.276000000000     0.494366666667     0.401066666667     0          
O        O      0.283625000000     0.415566666667     0.352866666667     0          
O        O      0.254625000000     0.588833333333     0.396466666667     0          
O        O      0.290650000000     0.470666666667     0.536066666667     0          
O        O      0.298200000000     0.546400000000     0.470500000000     0          
O        O      0.358575000000     0.447366666667     0.385200000000     0          
O        O      0.250000000000     0.333333333333     0.333333333333     0          
O        O      0.375000000000     0.500000000000     0.500000000000     0          
O        O      0.320525000000     0.552200000000     0.560933333333     0          
O        O      0.320175000000     0.496733333333     0.644566666667     0          
O        O      0.308150000000     0.592100000000     0.645266666667     0          
O        O      0.474000000000     0.505633333333     0.598933333333     0          
O        O      0.466375000000     0.584433333333     0.647133333333     0          
O        O      0.495375000000     0.411166666667     0.603533333333     0          
O        O      0.459350000000     0.529333333333     0.463933333333     0          
O        O      0.451800000000     0.453600000000     0.529500000000     0          
O        O      0.391425000000     0.552633333333     0.614800000000     0          
O        O      0.429475000000     0.447800000000     0.772400000000     0          
O        O      0.429825000000     0.503266666667     0.688766666667     0          
O        O      0.441850000000     0.407900000000     0.688066666667     0          
O        O      0.276000000000     0.494366666667     0.734400000000     0          
O        O      0.283625000000     0.415566666667     0.686200000000     0          
O        O      0.254625000000     0.588833333333     0.729800000000     0          
O        O      0.290650000000     0.470666666667     0.869400000000     0          
O        O      0.298200000000     0.546400000000     0.803833333333     0          
O        O      0.358575000000     0.447366666667     0.718533333333     0          
O        O      0.250000000000     0.333333333333     0.666666666667     0          
O        O      0.375000000000     0.500000000000     0.833333333333     0          
O        O      0.320525000000     0.552200000000     0.894266666667     0          
O        O      0.320175000000     0.496733333333     0.977900000000     0          
O        O      0.308150000000     0.592100000000     0.978600000000     0          
O        O      0.474000000000     0.505633333333     0.932266666667     0          
O        O      0.466375000000     0.584433333333     0.980466666667     0          
O        O      0.495375000000     0.411166666667     0.936866666667     0          
O        O      0.459350000000     0.529333333333     0.797266666667     0          
O        O      0.451800000000     0.453600000000     0.862833333333     0          
O        O      0.391425000000     0.552633333333     0.948133333333     0          
O        O      0.429475000000     0.781133333333     0.105733333333     0          
O        O      0.429825000000     0.836600000000     0.022100000000     0          
O        O      0.441850000000     0.741233333333     0.021400000000     0          
O        O      0.276000000000     0.827700000000     0.067733333333     0          
O        O      0.283625000000     0.748900000000     0.019533333333     0          
O        O      0.254625000000     0.922166666667     0.063133333333     0          
O        O      0.290650000000     0.804000000000     0.202733333333     0          
O        O      0.298200000000     0.879733333333     0.137166666667     0          
O        O      0.358575000000     0.780700000000     0.051866666667     0          
O        O      0.250000000000     0.666666666667     0.000000000000     0          
O        O      0.375000000000     0.833333333333     0.166666666667     0          
O        O      0.320525000000     0.885533333333     0.227600000000     0          
O        O      0.320175000000     0.830066666667     0.311233333333     0          
O        O      0.308150000000     0.925433333333     0.311933333333     0          
O        O      0.474000000000     0.838966666667     0.265600000000     0          
O        O      0.466375000000     0.917766666667     0.313800000000     0          
O        O      0.495375000000     0.744500000000     0.270200000000     0          
O        O      0.459350000000     0.862666666667     0.130600000000     0          
O        O      0.451800000000     0.786933333333     0.196166666667     0          
O        O      0.391425000000     0.885966666667     0.281466666667     0          
O        O      0.429475000000     0.781133333333     0.439066666667     0          
O        O      0.429825000000     0.836600000000     0.355433333333     0          
O        O      0.441850000000     0.741233333333     0.354733333333     0          
O        O      0.276000000000     0.827700000000     0.401066666667     0          
O        O      0.283625000000     0.748900000000     0.352866666667     0          
O        O      0.254625000000     0.922166666667     0.396466666667     0          
O        O      0.290650000000     0.804000000000     0.536066666667     0          
O        O      0.298200000000     0.879733333333     0.470500000000     0          
O        O      0.358575000000     0.780700000000     0.385200000000     0          
O        O      0.250000000000     0.666666666667     0.333333333333     0          
O        O      0.375000000000     0.833333333333     0.500000000000     0          
O        O      0.320525000000     0.885533333333     0.560933333333     0          
O        O      0.320175000000     0.830066666667     0.644566666667     0          
O        O      0.308150000000     0.925433333333     0.645266666667     0          
O        O      0.474000000000     0.838966666667     0.598933333333     0          
O        O      0.466375000000     0.917766666667     0.647133333333     0          
O        O      0.495375000000     0.744500000000     0.603533333333     0          
O        O      0.459350000000     0.862666666667     0.463933333333     0          
O        O      0.451800000000     0.786933333333     0.529500000000     0          
O        O      0.391425000000     0.885966666667     0.614800000000     0          
O        O      0.429475000000     0.781133333333     0.772400000000     0          
O        O      0.429825000000     0.836600000000     0.688766666667     0          
O        O      0.441850000000     0.741233333333     0.688066666667     0          
O        O      0.276000000000     0.827700000000     0.734400000000     0          
O        O      0.283625000000     0.748900000000     0.686200000000     0          
O        O      0.254625000000     0.922166666667     0.729800000000     0          
O        O      0.290650000000     0.804000000000     0.869400000000     0          
O        O      0.298200000000     0.879733333333     0.803833333333     0          
O        O      0.358575000000     0.780700000000     0.718533333333     0          
O        O      0.250000000000     0.666666666667     0.666666666667     0          
O        O      0.375000000000     0.833333333333     0.833333333333     0          
O        O      0.320525000000     0.885533333333     0.894266666667     0          
O        O      0.320175000000     0.830066666667     0.977900000000     0          
O        O      0.308150000000     0.925433333333     0.978600000000     0          
O        O      0.474000000000     0.838966666667     0.932266666667     0          
O        O      0.466375000000     0.917766666667     0.980466666667     0          
O        O      0.495375000000     0.744500000000     0.936866666667     0          
O        O      0.459350000000     0.862666666667     0.797266666667     0          
O        O      0.451800000000     0.786933333333     0.862833333333     0          
O        O      0.391425000000     0.885966666667     0.948133333333     0          
O        O      0.679475000000     0.114466666667     0.105733333333     0          
O        O      0.679825000000     0.169933333333     0.022100000000     0          
O        O      0.691850000000     0.074566666667     0.021400000000     0          
O        O      0.526000000000     0.161033333333     0.067733333333     0          
O        O      0.533625000000     0.082233333333     0.019533333333     0          
O        O      0.504625000000     0.255500000000     0.063133333333     0          
O        O      0.540650000000     0.137333333333     0.202733333333     0          
O        O      0.548200000000     0.213066666667     0.137166666667     0          
O        O      0.608575000000     0.114033333333     0.051866666667     0          
O        O      0.500000000000     0.000000000000     0.000000000000     0          
O        O      0.625000000000     0.166666666667     0.166666666667     0          
O        O      0.570525000000     0.218866666667     0.227600000000     0          
O        O      0.570175000000     0.163400000000     0.311233333333     0          
O        O      0.558150000000     0.258766666667     0.311933333333     0          
O        O      0.724000000000     0.172300000000     0.265600000000     0          
O        O      0.716375000000     0.251100000000     0.313800000000     0          
O        O      0.745375000000     0.077833333333     0.270200000000     0          
O        O      0.709350000000     0.196000000000     0.130600000000     0          
O        O      0.701800000000     0.120266666667     0.196166666667     0          
O        O      0.641425000000     0.219300000000     0.281466666667     0          
O        O      0.679475000000     0.114466666667     0.439066666667     0          
O        O      0.679825000000     0.169933333333     0.355433333333     0          
O        O      0.691850000000     0.074566666667     0.354733333333     0          
O        O      0.526000000000     0.161033333333     0.401066666667     0          
O        O      0.533625000000     0.082233333333     0.352866666667     0          
O        O      0.504625000000     0.255500000000     0.396466666667     0          
O        O      0.540650000000     0.137333333333     0.536066666667     0          
O        O      0.548200000000     0.213066666667     0.470500000000     0          
O        O      0.608575000000     0.114033333333     0.385200000000     0          
O        O      0.500000000000     0.000000000000     0.333333333333     0          
O        O      0.625000000000     0.166666666667     0.500000000000     0          
O        O      0.570525000000     0.218866666667     0.560933333333     0          
O        O      0.570175000000     0.163400000000     0.644566666667     0          
O        O      0.558150000000     0.258766666667     0.645266666667     0          
O        O      0.724000000000     0.172300000000     0.598933333333     0          
O        O      0.716375000000     0.251100000000     0.647133333333     0          
O        O      0.745375000000     0.077833333333     0.603533333333     0          
O        O      0.709350000000     0.196000000000     0.463933333333     0          
O        O      0.701800000000     0.120266666667     0.529500000000     0          
O        O      0.641425000000     0.219300000000     0.614800000000     0          
O        O      0.679475000000     0.114466666667     0.772400000000     0          
O        O      0.679825000000     0.169933333333     0.688766666667     0          
O        O      0.691850000000     0.074566666667     0.688066666667     0          
O        O      0.526000000000     0.161033333333     0.734400000000     0          
O        O      0.533625000000     0.082233333333     0.686200000000     0          
O        O      0.504625000000     0.255500000000     0.729800000000     0          
O        O      0.540650000000     0.137333333333     0.869400000000     0          
O        O      0.548200000000     0.213066666667     0.803833333333     0          
O        O      0.608575000000     0.114033333333     0.718533333333     0          
O        O      0.500000000000     0.000000000000     0.666666666667     0          
O        O      0.625000000000     0.166666666667     0.833333333333     0          
O        O      0.570525000000     0.218866666667     0.894266666667     0          
O        O      0.570175000000     0.163400000000     0.977900000000     0          
O        O      0.558150000000     0.258766666667     0.978600000000     0          
O        O      0.724000000000     0.172300000000     0.932266666667     0          
O        O      0.716375000000     0.251100000000     0.980466666667     0          
O        O      0.745375000000     0.077833333333     0.936866666667     0          
O        O      0.709350000000     0.196000000000     0.797266666667     0          
O        O      0.701800000000     0.120266666667     0.862833333333     0          
O        O      0.641425000000     0.219300000000     0.948133333333     0          
O        O      0.679475000000     0.447800000000     0.105733333333     0          
O        O      0.679825000000     0.503266666667     0.022100000000     0          
O        O      0.691850000000     0.407900000000     0.021400000000     0          
O        O      0.526000000000     0.494366666667     0.067733333333     0          
O        O      0.533625000000     0.415566666667     0.019533333333     0          
O        O      0.504625000000     0.588833333333     0.063133333333     0          
O        O      0.540650000000     0.470666666667     0.202733333333     0          
O        O      0.548200000000     0.546400000000     0.137166666667     0          
O        O      0.608575000000     0.447366666667     0.051866666667     0          
O        O      0.500000000000     0.333333333333     0.000000000000     0          
O        O      0.625000000000     0.500000000000     0.166666666667     0          
O        O      0.570525000000     0.552200000000     0.227600000000     0          
O        O      0.570175000000     0.496733333333     0.311233333333     0          
O        O      0.558150000000     0.592100000000     0.311933333333     0          
O        O      0.724000000000     0.505633333333     0.265600000000     0          
O        O      0.716375000000     0.584433333333     0.313800000000     0          
O        O      0.745375000000     0.411166666667     0.270200000000     0          
O        O      0.709350000000     0.529333333333     0.130600000000     0          
O        O      0.701800000000     0.453600000000     0.196166666667     0          
O        O      0.641425000000     0.552633333333     0.281466666667     0          
O        O      0.679475000000     0.447800000000     0.439066666667     0          
O        O      0.679825000000     0.503266666667     0.355433333333     0          
O        O      0.691850000000     0.407900000000     0.354733333333     0          
O        O      0.526000000000     0.494366666667     0.401066666667     0          
O        O      0.533625000000     0.415566666667     0.352866666667     0          
O        O      0.504625000000     0.588833333333     0.396466666667     0          
O        O      0.540650000000     0.470666666667     0.536066666667     0          
O        O      0.548200000000     0.546400000000     0.470500000000     0          
O        O      0.608575000000     0.447366666667     0.385200000000     0          
O        O      0.500000000000     0.333333333333     0.333333333333     0          
O        O      0.625000000000     0.500000000000     0.500000000000     0          
O        O      0.570525000000     0.552200000000     0.560933333333     0          
O        O      0.570175000000     0.496733333333     0.644566666667     0          
O        O      0.558150000000     0.592100000000     0.645266666667     0          
O        O      0.724000000000     0.505633333333     0.598933333333     0          
O        O      0.716375000000     0.584433333333     0.647133333333     0          
O        O      0.745375000000     0.411166666667     0.603533333333     0          
O        O      0.709350000000     0.529333333333     0.463933333333     0          
O        O      0.701800000000     0.453600000000     0.529500000000     0          
O        O      0.641425000000     0.552633333333     0.614800000000     0          
O        O      0.679475000000     0.447800000000     0.772400000000     0          
O        O      0.679825000000     0.503266666667     0.688766666667     0          
O        O      0.691850000000     0.407900000000     0.688066666667     0          
O        O      0.526000000000     0.494366666667     0.734400000000     0          
O        O      0.533625000000     0.415566666667     0.686200000000     0          
O        O      0.504625000000     0.588833333333     0.729800000000     0          
O        O      0.540650000000     0.470666666667     0.869400000000     0          
O        O      0.548200000000     0.546400000000     0.803833333333     0          
O        O      0.608575000000     0.447366666667     0.718533333333     0          
O        O      0.500000000000     0.333333333333     0.666666666667     0          
O        O      0.625000000000     0.500000000000     0.833333333333     0          
O        O      0.570525000000     0.552200000000     0.894266666667     0          
O        O      0.570175000000     0.496733333333     0.977900000000     0          
O        O      0.558150000000     0.592100000000     0.978600000000     0          
O        O      0.724000000000     0.505633333333     0.932266666667     0          
O        O      0.716375000000     0.584433333333     0.980466666667     0          
O        O      0.745375000000     0.411166666667     0.936866666667     0          
O        O      0.709350000000     0.529333333333     0.797266666667     0          
O        O      0.701800000000     0.453600000000     0.862833333333     0          
O        O      0.641425000000     0.552633333333     0.948133333333     0          
O        O      0.679475000000     0.781133333333     0.105733333333     0          
O        O      0.679825000000     0.836600000000     0.022100000000     0          
O        O      0.691850000000     0.741233333333     0.021400000000     0          
O        O      0.526000000000     0.827700000000     0.067733333333     0          
O        O      0.533625000000     0.748900000000     0.019533333333     0          
O        O      0.504625000000     0.922166666667     0.063133333333     0          
O        O      0.540650000000     0.804000000000     0.202733333333     0          
O        O      0.548200000000     0.879733333333     0.137166666667     0          
O        O      0.608575000000     0.780700000000     0.051866666667     0          
O        O      0.500000000000     0.666666666667     0.000000000000     0          
O        O      0.625000000000     0.833333333333     0.166666666667     0          
O        O      0.570525000000     0.885533333333     0.227600000000     0          
O        O      0.570175000000     0.830066666667     0.311233333333     0          
O        O      0.558150000000     0.925433333333     0.311933333333     0          
O        O      0.724000000000     0.838966666667     0.265600000000     0          
O        O      0.716375000000     0.917766666667     0.313800000000     0          
O        O      0.745375000000     0.744500000000     0.270200000000     0          
O        O      0.709350000000     0.862666666667     0.130600000000     0          
O        O      0.701800000000     0.786933333333     0.196166666667     0          
O        O      0.641425000000     0.885966666667     0.281466666667     0          
O        O      0.679475000000     0.781133333333     0.439066666667     0          
O        O      0.679825000000     0.836600000000     0.355433333333     0          
O        O      0.691850000000     0.741233333333     0.354733333333     0          
O        O      0.526000000000     0.827700000000     0.401066666667     0          
O        O      0.533625000000     0.748900000000     0.352866666667     0          
O        O      0.504625000000     0.922166666667     0.396466666667     0          
O        O      0.540650000000     0.804000000000     0.536066666667     0          
O        O      0.548200000000     0.879733333333     0.470500000000     0          
O        O      0.608575000000     0.780700000000     0.385200000000     0          
O        O      0.500000000000     0.666666666667     0.333333333333     0          
O        O      0.625000000000     0.833333333333     0.500000000000     0          
O        O      0.570525000000     0.885533333333     0.560933333333     0          
O        O      0.570175000000     0.830066666667     0.644566666667     0          
O        O      0.558150000000     0.925433333333     0.645266666667     0          
O        O      0.724000000000     0.838966666667     0.598933333333     0          
O        O      0.716375000000     0.917766666667     0.647133333333     0          
O        O      0.745375000000     0.744500000000     0.603533333333     0          
O        O      0.709350000000     0.862666666667     0.463933333333     0          
O        O      0.701800000000     0.786933333333     0.529500000000     0          
O        O      0.641425000000     0.885966666667     0.614800000000     0          
O        O      0.679475000000     0.781133333333     0.772400000000     0          
O        O      0.679825000000     0.836600000000     0.688766666667     0          
O        O      0.691850000000     0.741233333333     0.688066666667     0          
O        O      0.526000000000     0.827700000000     0.734400000000     0          
O        O      0.533625000000     0.748900000000     0.686200000000     0          
O        O      0.504625000000     0.922166666667     0.729800000000     0          
O        O      0.540650000000     0.804000000000     0.869400000000     0          
O        O      0.548200000000     0.879733333333     0.803833333333     0          
O        O      0.608575000000     0.780700000000     0.718533333333     0          
O        O      0.500000000000     0.666666666667     0.666666666667     0          
O        O      0.625000000000     0.833333333333     0.833333333333     0          
O        O      0.570525000000     0.885533333333     0.894266666667     0          
O        O      0.570175000000     0.830066666667     0.977900000000     0          
O        O      0.558150000000     0.925433333333     0.978600000000     0          
O        O      0.724000000000     0.838966666667     0.932266666667     0          
O        O      0.716375000000     0.917766666667     0.980466666667     0          
O        O      0.745375000000     0.744500000000     0.936866666667     0          
O        O      0.709350000000     0.862666666667     0.797266666667     0          
O        O      0.701800000000     0.786933333333     0.862833333333     0          
O        O      0.641425000000     0.885966666667     0.948133333333     0          
O        O      0.929475000000     0.114466666667     0.105733333333     0          
O        O      0.929825000000     0.169933333333     0.022100000000     0          
O        O      0.941850000000     0.074566666667     0.021400000000     0          
O        O      0.776000000000     0.161033333333     0.067733333333     0          
O        O      0.783625000000     0.082233333333     0.019533333333     0          
O        O      0.754625000000     0.255500000000     0.063133333333     0          
O        O      0.790650000000     0.137333333333     0.202733333333     0          
O        O      0.798200000000     0.213066666667     0.137166666667     0          
O        O      0.858575000000     0.114033333333     0.051866666667     0          
O        O      0.750000000000     0.000000000000     0.000000000000     0          
O        O      0.875000000000     0.166666666667     0.166666666667     0          
O        O      0.820525000000     0.218866666667     0.227600000000     0          
O        O      0.820175000000     0.163400000000     0.311233333333     0          
O        O      0.808150000000     0.258766666667     0.311933333333     0          
O        O      0.974000000000     0.172300000000     0.265600000000     0          
O        O      0.966375000000     0.251100000000     0.313800000000     0          
O        O      0.995375000000     0.077833333333     0.270200000000     0          
O        O      0.959350000000     0.196000000000     0.130600000000     0          
O        O      0.951800000000     0.120266666667     0.196166666667     0          
O        O      0.891425000000     0.219300000000     0.281466666667     0          
O        O      0.929475000000     0.114466666667     0.439066666667     0          
O        O      0.929825000000     0.169933333333     0.355433333333     0          
O        O      0.941850000000     0.074566666667     0.354733333333     0          
O        O      0.776000000000     0.161033333333     0.401066666667     0          
O        O      0.783625000000     0.082233333333     0.352866666667     0          
O        O      0.754625000000     0.255500000000     0.396466666667     0          
O        O      0.790650000000     0.137333333333     0.536066666667     0          
O        O      0.798200000000     0.213066666667     0.470500000000     0          
O        O      0.858575000000     0.114033333333     0.385200000000     0          
O        O      0.750000000000     0.000000000000     0.333333333333     0          
O        O      0.875000000000     0.166666666667     0.500000000000     0          
O        O      0.820525000000     0.218866666667     0.560933333333     0          
O        O      0.820175000000     0.163400000000     0.644566666667     0          
O        O      0.808150000000     0.258766666667     0.645266666667     0          
O        O      0.974000000000     0.172300000000     0.598933333333     0          
O        O      0.966375000000     0.251100000000     0.647133333333     0          
O        O      0.995375000000     0.077833333333     0.603533333333     0          
O        O      0.959350000000     0.196000000000     0.463933333333     0          
O        O      0.951800000000     0.120266666667     0.529500000000     0          
O        O      0.891425000000     0.219300000000     0.614800000000     0          
O        O      0.929475000000     0.114466666667     0.772400000000     0          
O        O      0.929825000000     0.169933333333     0.688766666667     0          
O        O      0.941850000000     0.074566666667     0.688066666667     0          
O        O      0.776000000000     0.161033333333     0.734400000000     0          
O        O      0.783625000000     0.082233333333     0.686200000000     0          
O        O      0.754625000000     0.255500000000     0.729800000000     0          
O        O      0.790650000000     0.137333333333     0.869400000000     0          
O        O      0.798200000000     0.213066666667     0.803833333333     0          
O        O      0.858575000000     0.114033333333     0.718533333333     0          
O        O      0.750000000000     0.000000000000     0.666666666667     0          
O        O      0.875000000000     0.166666666667     0.833333333333     0          
O        O      0.820525000000     0.218866666667     0.894266666667     0          
O        O      0.820175000000     0.163400000000     0.977900000000     0          
O        O      0.808150000000     0.258766666667     0.978600000000     0          
O        O      0.974000000000     0.172300000000     0.932266666667     0          
O        O      0.966375000000     0.251100000000     0.980466666667     0          
O        O      0.995375000000     0.077833333333     0.936866666667     0          
O        O      0.959350000000     0.196000000000     0.797266666667     0          
O        O      0.951800000000     0.120266666667     0.862833333333     0          
O        O      0.891425000000     0.219300000000     0.948133333333     0          
O        O      0.929475000000     0.447800000000     0.105733333333     0          
O        O      0.929825000000     0.503266666667     0.022100000000     0          
O        O      0.941850000000     0.407900000000     0.021400000000     0          
O        O      0.776000000000     0.494366666667     0.067733333333     0          
O        O      0.783625000000     0.415566666667     0.019533333333     0          
O        O      0.754625000000     0.588833333333     0.063133333333     0          
O        O      0.790650000000     0.470666666667     0.202733333333     0          
O        O      0.798200000000     0.546400000000     0.137166666667     0          
O        O      0.858575000000     0.447366666667     0.051866666667     0          
O        O      0.750000000000     0.333333333333     0.000000000000     0          
O        O      0.875000000000     0.500000000000     0.166666666667     0          
O        O      0.820525000000     0.552200000000     0.227600000000     0          
O        O      0.820175000000     0.496733333333     0.311233333333     0          
O        O      0.808150000000     0.592100000000     0.311933333333     0          
O        O      0.974000000000     0.505633333333     0.265600000000     0          
O        O      0.966375000000     0.584433333333     0.313800000000     0          
O        O      0.995375000000     0.411166666667     0.270200000000     0          
O        O      0.959350000000     0.529333333333     0.130600000000     0          
O        O      0.951800000000     0.453600000000     0.196166666667     0          
O        O      0.891425000000     0.552633333333     0.281466666667     0          
O        O      0.929475000000     0.447800000000     0.439066666667     0          
O        O      0.929825000000     0.503266666667     0.355433333333     0          
O        O      0.941850000000     0.407900000000     0.354733333333     0          
O        O      0.776000000000     0.494366666667     0.401066666667     0          
O        O      0.783625000000     0.415566666667     0.352866666667     0          
O        O      0.754625000000     0.588833333333     0.396466666667     0          
O        O      0.790650000000     0.470666666667     0.536066666667     0          
O        O      0.798200000000     0.546400000000     0.470500000000     0          
O        O      0.858575000000     0.447366666667     0.385200000000     0          
O        O      0.750000000000     0.333333333333     0.333333333333     0          
O        O      0.875000000000     0.500000000000     0.500000000000     0          
O        O      0.820525000000     0.552200000000     0.560933333333     0          
O        O      0.820175000000     0.496733333333     0.644566666667     0          
O        O      0.808150000000     0.592100000000     0.645266666667     0          
O        O      0.974000000000     0.505633333333     0.598933333333     0          
O        O      0.966375000000     0.584433333333     0.647133333333     0          
O        O      0.995375000000     0.411166666667     0.603533333333     0          
O        O      0.959350000000     0.529333333333     0.463933333333     0          
O        O      0.951800000000     0.453600000000     0.529500000000     0          
O        O      0.891425000000     0.552633333333     0.614800000000     0          
O        O      0.929475000000     0.447800000000     0.772400000000     0          
O        O      0.929825000000     0.503266666667     0.688766666667     0          
O        O      0.941850000000     0.407900000000     0.688066666667     0          
O        O      0.776000000000     0.494366666667     0.734400000000     0          
O        O      0.783625000000     0.415566666667     0.686200000000     0          
O        O      0.754625000000     0.588833333333     0.729800000000     0          
O        O      0.790650000000     0.470666666667     0.869400000000     0          
O        O      0.798200000000     0.546400000000     0.803833333333     0          
O        O      0.858575000000     0.447366666667     0.718533333333     0          
O        O      0.750000000000     0.333333333333     0.666666666667     0          
O        O      0.875000000000     0.500000000000     0.833333333333     0          
O        O      0.820525000000     0.552200000000     0.894266666667     0          
O        O      0.820175000000     0.496733333333     0.977900000000     0          
O        O      0.808150000000     0.592100000000     0.978600000000     0          
O        O      0.974000000000     0.505633333333     0.932266666667     0          
O        O      0.966375000000     0.584433333333     0.980466666667     0          
O        O      0.995375000000     0.411166666667     0.936866666667     0          
O        O      0.959350000000     0.529333333333     0.797266666667     0          
O        O      0.951800000000     0.453600000000     0.862833333333     0          
O        O      0.891425000000     0.552633333333     0.948133333333     0          
O        O      0.929475000000     0.781133333333     0.105733333333     0          
O        O      0.929825000000     0.836600000000     0.022100000000     0          
O        O      0.941850000000     0.741233333333     0.021400000000     0          
O        O      0.776000000000     0.827700000000     0.067733333333     0          
O        O      0.783625000000     0.748900000000     0.019533333333     0          
O        O      0.754625000000     0.922166666667     0.063133333333     0          
O        O      0.790650000000     0.804000000000     0.202733333333     0          
O        O      0.798200000000     0.879733333333     0.137166666667     0          
O        O      0.858575000000     0.780700000000     0.051866666667     0          
O        O      0.750000000000     0.666666666667     0.000000000000     0          
O        O      0.875000000000     0.833333333333     0.166666666667     0          
O        O      0.820525000000     0.885533333333     0.227600000000     0          
O        O      0.820175000000     0.830066666667     0.311233333333     0          
O        O      0.808150000000     0.925433333333     0.311933333333     0          
O        O      0.974000000000     0.838966666667     0.265600000000     0          
O        O      0.966375000000     0.917766666667     0.313800000000     0          
O        O      0.995375000000     0.744500000000     0.270200000000     0          
O        O      0.959350000000     0.862666666667     0.130600000000     0          
O        O      0.951800000000     0.786933333333     0.196166666667     0          
O        O      0.891425000000     0.885966666667     0.281466666667     0          
O        O      0.929475000000     0.781133333333     0.439066666667     0          
O        O      0.929825000000     0.836600000000     0.355433333333     0          
O        O      0.941850000000     0.741233333333     0.354733333333     0          
O        O      0.776000000000     0.827700000000     0.401066666667     0          
O        O      0.783625000000     0.748900000000     0.352866666667     0          
O        O      0.754625000000     0.922166666667     0.396466666667     0          
O        O      0.790650000000     0.804000000000     0.536066666667     0          
O        O      0.798200000000     0.879733333333     0.470500000000     0          
O        O      0.858575000000     0.780700000000     0.385200000000     0          
O        O      0.750000000000     0.666666666667     0.333333333333     0          
O        O      0.875000000000     0.833333333333     0.500000000000     0          
O        O      0.820525000000     0.885533333333     0.560933333333     0          
O        O      0.820175000000     0.830066666667     0.644566666667     0          
O        O      0.808150000000     0.925433333333     0.645266666667     0          
O        O      0.974000000000     0.838966666667     0.598933333333     0          
O        O      0.966375000000     0.917766666667     0.647133333333     0          
O        O      0.995375000000     0.744500000000     0.603533333333     0          
O        O      0.959350000000     0.862666666667     0.463933333333     0          
O        O      0.951800000000     0.786933333333     0.529500000000     0          
O        O      0.891425000000     0.885966666667     0.614800000000     0          
O        O      0.929475000000     0.781133333333     0.772400000000     0          
O        O      0.929825000000     0.836600000000     0.688766666667     0          
O        O      0.941850000000     0.741233333333     0.688066666667     0          
O        O      0.776000000000     0.827700000000     0.734400000000     0          
O        O      0.783625000000     0.748900000000     0.686200000000     0          
O        O      0.754625000000     0.922166666667     0.729800000000     0          
O        O      0.790650000000     0.804000000000     0.869400000000     0          
O        O      0.798200000000     0.879733333333     0.803833333333     0          
O        O      0.858575000000     0.780700000000     0.718533333333     0          
O        O      0.750000000000     0.666666666667     0.666666666667     0          
O        O      0.875000000000     0.833333333333     0.833333333333     0          
O        O      0.820525000000     0.885533333333     0.894266666667     0          
O        O      0.820175000000     0.830066666667     0.977900000000     0          
O        O      0.808150000000     0.925433333333     0.978600000000     0          
O        O      0.974000000000     0.838966666667     0.932266666667     0          
O        O      0.966375000000     0.917766666667     0.980466666667     0          
O        O      0.995375000000     0.744500000000     0.936866666667     0          
O        O      0.959350000000     0.862666666667     0.797266666667     0          
O        O      0.951800000000     0.786933333333     0.862833333333     0          
O        O      0.891425000000     0.885966666667     0.948133333333     0          


