data_zeolite

_audit_creation_method RASPA-1.0
_audit_creation_date 2021-6-7
_audit_author_name ''

_cell_length_a    29.715
_cell_length_b    29.715
_cell_length_c    29.715
_cell_angle_alpha 90
_cell_angle_beta  90
_cell_angle_gamma 90
_cell_volume      26237.8

_symmetry_cell_setting          cubic
_symmetry_space_group_name_Hall 'P 1'
_symmetry_space_group_name_H-M  'P 1'
_symmetry_Int_Tables_number     1

_symmetry_equiv_pos_as_xyz 'x,y,z'

loop_
_atom_site_label
_atom_site_type_symbol
_atom_site_fract_x
_atom_site_fract_y
_atom_site_fract_z
_atom_site_charge
O        O      0.083333333333     0.083333333333     0.083333333333     0          
O        O      0.062566666667     0.062566666667     0.000000000000     0          
T        Si     0.052133333333     0.052133333333     0.052133333333     0          
O        O      0.250000000000     0.083333333333     0.083333333333     0          
O        O      0.270766666667     0.062566666667     0.000000000000     0          
T        Si     0.281200000000     0.052133333333     0.052133333333     0          
O        O      0.250000000000     0.250000000000     0.083333333333     0          
O        O      0.270766666667     0.270766666667     0.000000000000     0          
T        Si     0.281200000000     0.281200000000     0.052133333333     0          
O        O      0.083333333333     0.250000000000     0.083333333333     0          
O        O      0.062566666667     0.270766666667     0.000000000000     0          
T        Si     0.052133333333     0.281200000000     0.052133333333     0          
O        O      0.083333333333     0.250000000000     0.250000000000     0          
T        Si     0.052133333333     0.281200000000     0.281200000000     0          
O        O      0.083333333333     0.083333333333     0.250000000000     0          
T        Si     0.052133333333     0.052133333333     0.281200000000     0          
O        O      0.250000000000     0.083333333333     0.250000000000     0          
T        Si     0.281200000000     0.052133333333     0.281200000000     0          
O        O      0.250000000000     0.250000000000     0.250000000000     0          
T        Si     0.281200000000     0.281200000000     0.281200000000     0          
O        O      0.000000000000     0.062566666667     0.062566666667     0          
O        O      0.270766666667     0.000000000000     0.062566666667     0          
O        O      0.000000000000     0.270766666667     0.062566666667     0          
O        O      0.062566666667     0.000000000000     0.062566666667     0          
O        O      0.000000000000     0.270766666667     0.270766666667     0          
O        O      0.062566666667     0.000000000000     0.270766666667     0          
O        O      0.000000000000     0.062566666667     0.270766666667     0          
O        O      0.270766666667     0.000000000000     0.270766666667     0          
O        O      0.229233333333     0.229233333333     0.166666666667     0          
T        Si     0.218800000000     0.218800000000     0.218800000000     0          
O        O      0.104100000000     0.229233333333     0.166666666667     0          
T        Si     0.114533333333     0.218800000000     0.218800000000     0          
O        O      0.104100000000     0.104100000000     0.166666666667     0          
T        Si     0.114533333333     0.114533333333     0.218800000000     0          
O        O      0.229233333333     0.104100000000     0.166666666667     0          
T        Si     0.218800000000     0.114533333333     0.218800000000     0          
T        Si     0.218800000000     0.114533333333     0.114533333333     0          
T        Si     0.218800000000     0.218800000000     0.114533333333     0          
T        Si     0.114533333333     0.218800000000     0.114533333333     0          
T        Si     0.114533333333     0.114533333333     0.114533333333     0          
O        O      0.166666666667     0.229233333333     0.229233333333     0          
O        O      0.104100000000     0.166666666667     0.229233333333     0          
O        O      0.166666666667     0.104100000000     0.229233333333     0          
O        O      0.229233333333     0.166666666667     0.229233333333     0          
O        O      0.166666666667     0.104100000000     0.104100000000     0          
O        O      0.229233333333     0.166666666667     0.104100000000     0          
O        O      0.166666666667     0.229233333333     0.104100000000     0          
O        O      0.104100000000     0.166666666667     0.104100000000     0          
O        O      0.083333333333     0.083333333333     0.416666666667     0          
O        O      0.062566666667     0.062566666667     0.333333333333     0          
T        Si     0.052133333333     0.052133333333     0.385466666667     0          
O        O      0.250000000000     0.083333333333     0.416666666667     0          
O        O      0.270766666667     0.062566666667     0.333333333333     0          
T        Si     0.281200000000     0.052133333333     0.385466666667     0          
O        O      0.250000000000     0.250000000000     0.416666666667     0          
O        O      0.270766666667     0.270766666667     0.333333333333     0          
T        Si     0.281200000000     0.281200000000     0.385466666667     0          
O        O      0.083333333333     0.250000000000     0.416666666667     0          
O        O      0.062566666667     0.270766666667     0.333333333333     0          
T        Si     0.052133333333     0.281200000000     0.385466666667     0          
O        O      0.083333333333     0.250000000000     0.583333333333     0          
T        Si     0.052133333333     0.281200000000     0.614533333333     0          
O        O      0.083333333333     0.083333333333     0.583333333333     0          
T        Si     0.052133333333     0.052133333333     0.614533333333     0          
O        O      0.250000000000     0.083333333333     0.583333333333     0          
T        Si     0.281200000000     0.052133333333     0.614533333333     0          
O        O      0.250000000000     0.250000000000     0.583333333333     0          
T        Si     0.281200000000     0.281200000000     0.614533333333     0          
O        O      0.000000000000     0.062566666667     0.395900000000     0          
O        O      0.270766666667     0.000000000000     0.395900000000     0          
O        O      0.000000000000     0.270766666667     0.395900000000     0          
O        O      0.062566666667     0.000000000000     0.395900000000     0          
O        O      0.000000000000     0.270766666667     0.604100000000     0          
O        O      0.062566666667     0.000000000000     0.604100000000     0          
O        O      0.000000000000     0.062566666667     0.604100000000     0          
O        O      0.270766666667     0.000000000000     0.604100000000     0          
O        O      0.229233333333     0.229233333333     0.500000000000     0          
T        Si     0.218800000000     0.218800000000     0.552133333333     0          
O        O      0.104100000000     0.229233333333     0.500000000000     0          
T        Si     0.114533333333     0.218800000000     0.552133333333     0          
O        O      0.104100000000     0.104100000000     0.500000000000     0          
T        Si     0.114533333333     0.114533333333     0.552133333333     0          
O        O      0.229233333333     0.104100000000     0.500000000000     0          
T        Si     0.218800000000     0.114533333333     0.552133333333     0          
T        Si     0.218800000000     0.114533333333     0.447866666667     0          
T        Si     0.218800000000     0.218800000000     0.447866666667     0          
T        Si     0.114533333333     0.218800000000     0.447866666667     0          
T        Si     0.114533333333     0.114533333333     0.447866666667     0          
O        O      0.166666666667     0.229233333333     0.562566666667     0          
O        O      0.104100000000     0.166666666667     0.562566666667     0          
O        O      0.166666666667     0.104100000000     0.562566666667     0          
O        O      0.229233333333     0.166666666667     0.562566666667     0          
O        O      0.166666666667     0.104100000000     0.437433333333     0          
O        O      0.229233333333     0.166666666667     0.437433333333     0          
O        O      0.166666666667     0.229233333333     0.437433333333     0          
O        O      0.104100000000     0.166666666667     0.437433333333     0          
O        O      0.083333333333     0.083333333333     0.750000000000     0          
O        O      0.062566666667     0.062566666667     0.666666666667     0          
T        Si     0.052133333333     0.052133333333     0.718800000000     0          
O        O      0.250000000000     0.083333333333     0.750000000000     0          
O        O      0.270766666667     0.062566666667     0.666666666667     0          
T        Si     0.281200000000     0.052133333333     0.718800000000     0          
O        O      0.250000000000     0.250000000000     0.750000000000     0          
O        O      0.270766666667     0.270766666667     0.666666666667     0          
T        Si     0.281200000000     0.281200000000     0.718800000000     0          
O        O      0.083333333333     0.250000000000     0.750000000000     0          
O        O      0.062566666667     0.270766666667     0.666666666667     0          
T        Si     0.052133333333     0.281200000000     0.718800000000     0          
O        O      0.083333333333     0.250000000000     0.916666666667     0          
T        Si     0.052133333333     0.281200000000     0.947866666667     0          
O        O      0.083333333333     0.083333333333     0.916666666667     0          
T        Si     0.052133333333     0.052133333333     0.947866666667     0          
O        O      0.250000000000     0.083333333333     0.916666666667     0          
T        Si     0.281200000000     0.052133333333     0.947866666667     0          
O        O      0.250000000000     0.250000000000     0.916666666667     0          
T        Si     0.281200000000     0.281200000000     0.947866666667     0          
O        O      0.000000000000     0.062566666667     0.729233333333     0          
O        O      0.270766666667     0.000000000000     0.729233333333     0          
O        O      0.000000000000     0.270766666667     0.729233333333     0          
O        O      0.062566666667     0.000000000000     0.729233333333     0          
O        O      0.000000000000     0.270766666667     0.937433333333     0          
O        O      0.062566666667     0.000000000000     0.937433333333     0          
O        O      0.000000000000     0.062566666667     0.937433333333     0          
O        O      0.270766666667     0.000000000000     0.937433333333     0          
O        O      0.229233333333     0.229233333333     0.833333333333     0          
T        Si     0.218800000000     0.218800000000     0.885466666667     0          
O        O      0.104100000000     0.229233333333     0.833333333333     0          
T        Si     0.114533333333     0.218800000000     0.885466666667     0          
O        O      0.104100000000     0.104100000000     0.833333333333     0          
T        Si     0.114533333333     0.114533333333     0.885466666667     0          
O        O      0.229233333333     0.104100000000     0.833333333333     0          
T        Si     0.218800000000     0.114533333333     0.885466666667     0          
T        Si     0.218800000000     0.114533333333     0.781200000000     0          
T        Si     0.218800000000     0.218800000000     0.781200000000     0          
T        Si     0.114533333333     0.218800000000     0.781200000000     0          
T        Si     0.114533333333     0.114533333333     0.781200000000     0          
O        O      0.166666666667     0.229233333333     0.895900000000     0          
O        O      0.104100000000     0.166666666667     0.895900000000     0          
O        O      0.166666666667     0.104100000000     0.895900000000     0          
O        O      0.229233333333     0.166666666667     0.895900000000     0          
O        O      0.166666666667     0.104100000000     0.770766666667     0          
O        O      0.229233333333     0.166666666667     0.770766666667     0          
O        O      0.166666666667     0.229233333333     0.770766666667     0          
O        O      0.104100000000     0.166666666667     0.770766666667     0          
O        O      0.083333333333     0.416666666667     0.083333333333     0          
O        O      0.062566666667     0.395900000000     0.000000000000     0          
T        Si     0.052133333333     0.385466666667     0.052133333333     0          
O        O      0.250000000000     0.416666666667     0.083333333333     0          
O        O      0.270766666667     0.395900000000     0.000000000000     0          
T        Si     0.281200000000     0.385466666667     0.052133333333     0          
O        O      0.250000000000     0.583333333333     0.083333333333     0          
O        O      0.270766666667     0.604100000000     0.000000000000     0          
T        Si     0.281200000000     0.614533333333     0.052133333333     0          
O        O      0.083333333333     0.583333333333     0.083333333333     0          
O        O      0.062566666667     0.604100000000     0.000000000000     0          
T        Si     0.052133333333     0.614533333333     0.052133333333     0          
O        O      0.083333333333     0.583333333333     0.250000000000     0          
T        Si     0.052133333333     0.614533333333     0.281200000000     0          
O        O      0.083333333333     0.416666666667     0.250000000000     0          
T        Si     0.052133333333     0.385466666667     0.281200000000     0          
O        O      0.250000000000     0.416666666667     0.250000000000     0          
T        Si     0.281200000000     0.385466666667     0.281200000000     0          
O        O      0.250000000000     0.583333333333     0.250000000000     0          
T        Si     0.281200000000     0.614533333333     0.281200000000     0          
O        O      0.000000000000     0.395900000000     0.062566666667     0          
O        O      0.270766666667     0.333333333333     0.062566666667     0          
O        O      0.000000000000     0.604100000000     0.062566666667     0          
O        O      0.062566666667     0.333333333333     0.062566666667     0          
O        O      0.000000000000     0.604100000000     0.270766666667     0          
O        O      0.062566666667     0.333333333333     0.270766666667     0          
O        O      0.000000000000     0.395900000000     0.270766666667     0          
O        O      0.270766666667     0.333333333333     0.270766666667     0          
O        O      0.229233333333     0.562566666667     0.166666666667     0          
T        Si     0.218800000000     0.552133333333     0.218800000000     0          
O        O      0.104100000000     0.562566666667     0.166666666667     0          
T        Si     0.114533333333     0.552133333333     0.218800000000     0          
O        O      0.104100000000     0.437433333333     0.166666666667     0          
T        Si     0.114533333333     0.447866666667     0.218800000000     0          
O        O      0.229233333333     0.437433333333     0.166666666667     0          
T        Si     0.218800000000     0.447866666667     0.218800000000     0          
T        Si     0.218800000000     0.447866666667     0.114533333333     0          
T        Si     0.218800000000     0.552133333333     0.114533333333     0          
T        Si     0.114533333333     0.552133333333     0.114533333333     0          
T        Si     0.114533333333     0.447866666667     0.114533333333     0          
O        O      0.166666666667     0.562566666667     0.229233333333     0          
O        O      0.104100000000     0.500000000000     0.229233333333     0          
O        O      0.166666666667     0.437433333333     0.229233333333     0          
O        O      0.229233333333     0.500000000000     0.229233333333     0          
O        O      0.166666666667     0.437433333333     0.104100000000     0          
O        O      0.229233333333     0.500000000000     0.104100000000     0          
O        O      0.166666666667     0.562566666667     0.104100000000     0          
O        O      0.104100000000     0.500000000000     0.104100000000     0          
O        O      0.083333333333     0.416666666667     0.416666666667     0          
O        O      0.062566666667     0.395900000000     0.333333333333     0          
T        Si     0.052133333333     0.385466666667     0.385466666667     0          
O        O      0.250000000000     0.416666666667     0.416666666667     0          
O        O      0.270766666667     0.395900000000     0.333333333333     0          
T        Si     0.281200000000     0.385466666667     0.385466666667     0          
O        O      0.250000000000     0.583333333333     0.416666666667     0          
O        O      0.270766666667     0.604100000000     0.333333333333     0          
T        Si     0.281200000000     0.614533333333     0.385466666667     0          
O        O      0.083333333333     0.583333333333     0.416666666667     0          
O        O      0.062566666667     0.604100000000     0.333333333333     0          
T        Si     0.052133333333     0.614533333333     0.385466666667     0          
O        O      0.083333333333     0.583333333333     0.583333333333     0          
T        Si     0.052133333333     0.614533333333     0.614533333333     0          
O        O      0.083333333333     0.416666666667     0.583333333333     0          
T        Si     0.052133333333     0.385466666667     0.614533333333     0          
O        O      0.250000000000     0.416666666667     0.583333333333     0          
T        Si     0.281200000000     0.385466666667     0.614533333333     0          
O        O      0.250000000000     0.583333333333     0.583333333333     0          
T        Si     0.281200000000     0.614533333333     0.614533333333     0          
O        O      0.000000000000     0.395900000000     0.395900000000     0          
O        O      0.270766666667     0.333333333333     0.395900000000     0          
O        O      0.000000000000     0.604100000000     0.395900000000     0          
O        O      0.062566666667     0.333333333333     0.395900000000     0          
O        O      0.000000000000     0.604100000000     0.604100000000     0          
O        O      0.062566666667     0.333333333333     0.604100000000     0          
O        O      0.000000000000     0.395900000000     0.604100000000     0          
O        O      0.270766666667     0.333333333333     0.604100000000     0          
O        O      0.229233333333     0.562566666667     0.500000000000     0          
T        Si     0.218800000000     0.552133333333     0.552133333333     0          
O        O      0.104100000000     0.562566666667     0.500000000000     0          
T        Si     0.114533333333     0.552133333333     0.552133333333     0          
O        O      0.104100000000     0.437433333333     0.500000000000     0          
T        Si     0.114533333333     0.447866666667     0.552133333333     0          
O        O      0.229233333333     0.437433333333     0.500000000000     0          
T        Si     0.218800000000     0.447866666667     0.552133333333     0          
T        Si     0.218800000000     0.447866666667     0.447866666667     0          
T        Si     0.218800000000     0.552133333333     0.447866666667     0          
T        Si     0.114533333333     0.552133333333     0.447866666667     0          
T        Si     0.114533333333     0.447866666667     0.447866666667     0          
O        O      0.166666666667     0.562566666667     0.562566666667     0          
O        O      0.104100000000     0.500000000000     0.562566666667     0          
O        O      0.166666666667     0.437433333333     0.562566666667     0          
O        O      0.229233333333     0.500000000000     0.562566666667     0          
O        O      0.166666666667     0.437433333333     0.437433333333     0          
O        O      0.229233333333     0.500000000000     0.437433333333     0          
O        O      0.166666666667     0.562566666667     0.437433333333     0          
O        O      0.104100000000     0.500000000000     0.437433333333     0          
O        O      0.083333333333     0.416666666667     0.750000000000     0          
O        O      0.062566666667     0.395900000000     0.666666666667     0          
T        Si     0.052133333333     0.385466666667     0.718800000000     0          
O        O      0.250000000000     0.416666666667     0.750000000000     0          
O        O      0.270766666667     0.395900000000     0.666666666667     0          
T        Si     0.281200000000     0.385466666667     0.718800000000     0          
O        O      0.250000000000     0.583333333333     0.750000000000     0          
O        O      0.270766666667     0.604100000000     0.666666666667     0          
T        Si     0.281200000000     0.614533333333     0.718800000000     0          
O        O      0.083333333333     0.583333333333     0.750000000000     0          
O        O      0.062566666667     0.604100000000     0.666666666667     0          
T        Si     0.052133333333     0.614533333333     0.718800000000     0          
O        O      0.083333333333     0.583333333333     0.916666666667     0          
T        Si     0.052133333333     0.614533333333     0.947866666667     0          
O        O      0.083333333333     0.416666666667     0.916666666667     0          
T        Si     0.052133333333     0.385466666667     0.947866666667     0          
O        O      0.250000000000     0.416666666667     0.916666666667     0          
T        Si     0.281200000000     0.385466666667     0.947866666667     0          
O        O      0.250000000000     0.583333333333     0.916666666667     0          
T        Si     0.281200000000     0.614533333333     0.947866666667     0          
O        O      0.000000000000     0.395900000000     0.729233333333     0          
O        O      0.270766666667     0.333333333333     0.729233333333     0          
O        O      0.000000000000     0.604100000000     0.729233333333     0          
O        O      0.062566666667     0.333333333333     0.729233333333     0          
O        O      0.000000000000     0.604100000000     0.937433333333     0          
O        O      0.062566666667     0.333333333333     0.937433333333     0          
O        O      0.000000000000     0.395900000000     0.937433333333     0          
O        O      0.270766666667     0.333333333333     0.937433333333     0          
O        O      0.229233333333     0.562566666667     0.833333333333     0          
T        Si     0.218800000000     0.552133333333     0.885466666667     0          
O        O      0.104100000000     0.562566666667     0.833333333333     0          
T        Si     0.114533333333     0.552133333333     0.885466666667     0          
O        O      0.104100000000     0.437433333333     0.833333333333     0          
T        Si     0.114533333333     0.447866666667     0.885466666667     0          
O        O      0.229233333333     0.437433333333     0.833333333333     0          
T        Si     0.218800000000     0.447866666667     0.885466666667     0          
T        Si     0.218800000000     0.447866666667     0.781200000000     0          
T        Si     0.218800000000     0.552133333333     0.781200000000     0          
T        Si     0.114533333333     0.552133333333     0.781200000000     0          
T        Si     0.114533333333     0.447866666667     0.781200000000     0          
O        O      0.166666666667     0.562566666667     0.895900000000     0          
O        O      0.104100000000     0.500000000000     0.895900000000     0          
O        O      0.166666666667     0.437433333333     0.895900000000     0          
O        O      0.229233333333     0.500000000000     0.895900000000     0          
O        O      0.166666666667     0.437433333333     0.770766666667     0          
O        O      0.229233333333     0.500000000000     0.770766666667     0          
O        O      0.166666666667     0.562566666667     0.770766666667     0          
O        O      0.104100000000     0.500000000000     0.770766666667     0          
O        O      0.083333333333     0.750000000000     0.083333333333     0          
O        O      0.062566666667     0.729233333333     0.000000000000     0          
T        Si     0.052133333333     0.718800000000     0.052133333333     0          
O        O      0.250000000000     0.750000000000     0.083333333333     0          
O        O      0.270766666667     0.729233333333     0.000000000000     0          
T        Si     0.281200000000     0.718800000000     0.052133333333     0          
O        O      0.250000000000     0.916666666667     0.083333333333     0          
O        O      0.270766666667     0.937433333333     0.000000000000     0          
T        Si     0.281200000000     0.947866666667     0.052133333333     0          
O        O      0.083333333333     0.916666666667     0.083333333333     0          
O        O      0.062566666667     0.937433333333     0.000000000000     0          
T        Si     0.052133333333     0.947866666667     0.052133333333     0          
O        O      0.083333333333     0.916666666667     0.250000000000     0          
T        Si     0.052133333333     0.947866666667     0.281200000000     0          
O        O      0.083333333333     0.750000000000     0.250000000000     0          
T        Si     0.052133333333     0.718800000000     0.281200000000     0          
O        O      0.250000000000     0.750000000000     0.250000000000     0          
T        Si     0.281200000000     0.718800000000     0.281200000000     0          
O        O      0.250000000000     0.916666666667     0.250000000000     0          
T        Si     0.281200000000     0.947866666667     0.281200000000     0          
O        O      0.000000000000     0.729233333333     0.062566666667     0          
O        O      0.270766666667     0.666666666667     0.062566666667     0          
O        O      0.000000000000     0.937433333333     0.062566666667     0          
O        O      0.062566666667     0.666666666667     0.062566666667     0          
O        O      0.000000000000     0.937433333333     0.270766666667     0          
O        O      0.062566666667     0.666666666667     0.270766666667     0          
O        O      0.000000000000     0.729233333333     0.270766666667     0          
O        O      0.270766666667     0.666666666667     0.270766666667     0          
O        O      0.229233333333     0.895900000000     0.166666666667     0          
T        Si     0.218800000000     0.885466666667     0.218800000000     0          
O        O      0.104100000000     0.895900000000     0.166666666667     0          
T        Si     0.114533333333     0.885466666667     0.218800000000     0          
O        O      0.104100000000     0.770766666667     0.166666666667     0          
T        Si     0.114533333333     0.781200000000     0.218800000000     0          
O        O      0.229233333333     0.770766666667     0.166666666667     0          
T        Si     0.218800000000     0.781200000000     0.218800000000     0          
T        Si     0.218800000000     0.781200000000     0.114533333333     0          
T        Si     0.218800000000     0.885466666667     0.114533333333     0          
T        Si     0.114533333333     0.885466666667     0.114533333333     0          
T        Si     0.114533333333     0.781200000000     0.114533333333     0          
O        O      0.166666666667     0.895900000000     0.229233333333     0          
O        O      0.104100000000     0.833333333333     0.229233333333     0          
O        O      0.166666666667     0.770766666667     0.229233333333     0          
O        O      0.229233333333     0.833333333333     0.229233333333     0          
O        O      0.166666666667     0.770766666667     0.104100000000     0          
O        O      0.229233333333     0.833333333333     0.104100000000     0          
O        O      0.166666666667     0.895900000000     0.104100000000     0          
O        O      0.104100000000     0.833333333333     0.104100000000     0          
O        O      0.083333333333     0.750000000000     0.416666666667     0          
O        O      0.062566666667     0.729233333333     0.333333333333     0          
T        Si     0.052133333333     0.718800000000     0.385466666667     0          
O        O      0.250000000000     0.750000000000     0.416666666667     0          
O        O      0.270766666667     0.729233333333     0.333333333333     0          
T        Si     0.281200000000     0.718800000000     0.385466666667     0          
O        O      0.250000000000     0.916666666667     0.416666666667     0          
O        O      0.270766666667     0.937433333333     0.333333333333     0          
T        Si     0.281200000000     0.947866666667     0.385466666667     0          
O        O      0.083333333333     0.916666666667     0.416666666667     0          
O        O      0.062566666667     0.937433333333     0.333333333333     0          
T        Si     0.052133333333     0.947866666667     0.385466666667     0          
O        O      0.083333333333     0.916666666667     0.583333333333     0          
T        Si     0.052133333333     0.947866666667     0.614533333333     0          
O        O      0.083333333333     0.750000000000     0.583333333333     0          
T        Si     0.052133333333     0.718800000000     0.614533333333     0          
O        O      0.250000000000     0.750000000000     0.583333333333     0          
T        Si     0.281200000000     0.718800000000     0.614533333333     0          
O        O      0.250000000000     0.916666666667     0.583333333333     0          
T        Si     0.281200000000     0.947866666667     0.614533333333     0          
O        O      0.000000000000     0.729233333333     0.395900000000     0          
O        O      0.270766666667     0.666666666667     0.395900000000     0          
O        O      0.000000000000     0.937433333333     0.395900000000     0          
O        O      0.062566666667     0.666666666667     0.395900000000     0          
O        O      0.000000000000     0.937433333333     0.604100000000     0          
O        O      0.062566666667     0.666666666667     0.604100000000     0          
O        O      0.000000000000     0.729233333333     0.604100000000     0          
O        O      0.270766666667     0.666666666667     0.604100000000     0          
O        O      0.229233333333     0.895900000000     0.500000000000     0          
T        Si     0.218800000000     0.885466666667     0.552133333333     0          
O        O      0.104100000000     0.895900000000     0.500000000000     0          
T        Si     0.114533333333     0.885466666667     0.552133333333     0          
O        O      0.104100000000     0.770766666667     0.500000000000     0          
T        Si     0.114533333333     0.781200000000     0.552133333333     0          
O        O      0.229233333333     0.770766666667     0.500000000000     0          
T        Si     0.218800000000     0.781200000000     0.552133333333     0          
T        Si     0.218800000000     0.781200000000     0.447866666667     0          
T        Si     0.218800000000     0.885466666667     0.447866666667     0          
T        Si     0.114533333333     0.885466666667     0.447866666667     0          
T        Si     0.114533333333     0.781200000000     0.447866666667     0          
O        O      0.166666666667     0.895900000000     0.562566666667     0          
O        O      0.104100000000     0.833333333333     0.562566666667     0          
O        O      0.166666666667     0.770766666667     0.562566666667     0          
O        O      0.229233333333     0.833333333333     0.562566666667     0          
O        O      0.166666666667     0.770766666667     0.437433333333     0          
O        O      0.229233333333     0.833333333333     0.437433333333     0          
O        O      0.166666666667     0.895900000000     0.437433333333     0          
O        O      0.104100000000     0.833333333333     0.437433333333     0          
O        O      0.083333333333     0.750000000000     0.750000000000     0          
O        O      0.062566666667     0.729233333333     0.666666666667     0          
T        Si     0.052133333333     0.718800000000     0.718800000000     0          
O        O      0.250000000000     0.750000000000     0.750000000000     0          
O        O      0.270766666667     0.729233333333     0.666666666667     0          
T        Si     0.281200000000     0.718800000000     0.718800000000     0          
O        O      0.250000000000     0.916666666667     0.750000000000     0          
O        O      0.270766666667     0.937433333333     0.666666666667     0          
T        Si     0.281200000000     0.947866666667     0.718800000000     0          
O        O      0.083333333333     0.916666666667     0.750000000000     0          
O        O      0.062566666667     0.937433333333     0.666666666667     0          
T        Si     0.052133333333     0.947866666667     0.718800000000     0          
O        O      0.083333333333     0.916666666667     0.916666666667     0          
T        Si     0.052133333333     0.947866666667     0.947866666667     0          
O        O      0.083333333333     0.750000000000     0.916666666667     0          
T        Si     0.052133333333     0.718800000000     0.947866666667     0          
O        O      0.250000000000     0.750000000000     0.916666666667     0          
T        Si     0.281200000000     0.718800000000     0.947866666667     0          
O        O      0.250000000000     0.916666666667     0.916666666667     0          
T        Si     0.281200000000     0.947866666667     0.947866666667     0          
O        O      0.000000000000     0.729233333333     0.729233333333     0          
O        O      0.270766666667     0.666666666667     0.729233333333     0          
O        O      0.000000000000     0.937433333333     0.729233333333     0          
O        O      0.062566666667     0.666666666667     0.729233333333     0          
O        O      0.000000000000     0.937433333333     0.937433333333     0          
O        O      0.062566666667     0.666666666667     0.937433333333     0          
O        O      0.000000000000     0.729233333333     0.937433333333     0          
O        O      0.270766666667     0.666666666667     0.937433333333     0          
O        O      0.229233333333     0.895900000000     0.833333333333     0          
T        Si     0.218800000000     0.885466666667     0.885466666667     0          
O        O      0.104100000000     0.895900000000     0.833333333333     0          
T        Si     0.114533333333     0.885466666667     0.885466666667     0          
O        O      0.104100000000     0.770766666667     0.833333333333     0          
T        Si     0.114533333333     0.781200000000     0.885466666667     0          
O        O      0.229233333333     0.770766666667     0.833333333333     0          
T        Si     0.218800000000     0.781200000000     0.885466666667     0          
T        Si     0.218800000000     0.781200000000     0.781200000000     0          
T        Si     0.218800000000     0.885466666667     0.781200000000     0          
T        Si     0.114533333333     0.885466666667     0.781200000000     0          
T        Si     0.114533333333     0.781200000000     0.781200000000     0          
O        O      0.166666666667     0.895900000000     0.895900000000     0          
O        O      0.104100000000     0.833333333333     0.895900000000     0          
O        O      0.166666666667     0.770766666667     0.895900000000     0          
O        O      0.229233333333     0.833333333333     0.895900000000     0          
O        O      0.166666666667     0.770766666667     0.770766666667     0          
O        O      0.229233333333     0.833333333333     0.770766666667     0          
O        O      0.166666666667     0.895900000000     0.770766666667     0          
O        O      0.104100000000     0.833333333333     0.770766666667     0          
O        O      0.416666666667     0.083333333333     0.083333333333     0          
O        O      0.395900000000     0.062566666667     0.000000000000     0          
T        Si     0.385466666667     0.052133333333     0.052133333333     0          
O        O      0.583333333333     0.083333333333     0.083333333333     0          
O        O      0.604100000000     0.062566666667     0.000000000000     0          
T        Si     0.614533333333     0.052133333333     0.052133333333     0          
O        O      0.583333333333     0.250000000000     0.083333333333     0          
O        O      0.604100000000     0.270766666667     0.000000000000     0          
T        Si     0.614533333333     0.281200000000     0.052133333333     0          
O        O      0.416666666667     0.250000000000     0.083333333333     0          
O        O      0.395900000000     0.270766666667     0.000000000000     0          
T        Si     0.385466666667     0.281200000000     0.052133333333     0          
O        O      0.416666666667     0.250000000000     0.250000000000     0          
T        Si     0.385466666667     0.281200000000     0.281200000000     0          
O        O      0.416666666667     0.083333333333     0.250000000000     0          
T        Si     0.385466666667     0.052133333333     0.281200000000     0          
O        O      0.583333333333     0.083333333333     0.250000000000     0          
T        Si     0.614533333333     0.052133333333     0.281200000000     0          
O        O      0.583333333333     0.250000000000     0.250000000000     0          
T        Si     0.614533333333     0.281200000000     0.281200000000     0          
O        O      0.333333333333     0.062566666667     0.062566666667     0          
O        O      0.604100000000     0.000000000000     0.062566666667     0          
O        O      0.333333333333     0.270766666667     0.062566666667     0          
O        O      0.395900000000     0.000000000000     0.062566666667     0          
O        O      0.333333333333     0.270766666667     0.270766666667     0          
O        O      0.395900000000     0.000000000000     0.270766666667     0          
O        O      0.333333333333     0.062566666667     0.270766666667     0          
O        O      0.604100000000     0.000000000000     0.270766666667     0          
O        O      0.562566666667     0.229233333333     0.166666666667     0          
T        Si     0.552133333333     0.218800000000     0.218800000000     0          
O        O      0.437433333333     0.229233333333     0.166666666667     0          
T        Si     0.447866666667     0.218800000000     0.218800000000     0          
O        O      0.437433333333     0.104100000000     0.166666666667     0          
T        Si     0.447866666667     0.114533333333     0.218800000000     0          
O        O      0.562566666667     0.104100000000     0.166666666667     0          
T        Si     0.552133333333     0.114533333333     0.218800000000     0          
T        Si     0.552133333333     0.114533333333     0.114533333333     0          
T        Si     0.552133333333     0.218800000000     0.114533333333     0          
T        Si     0.447866666667     0.218800000000     0.114533333333     0          
T        Si     0.447866666667     0.114533333333     0.114533333333     0          
O        O      0.500000000000     0.229233333333     0.229233333333     0          
O        O      0.437433333333     0.166666666667     0.229233333333     0          
O        O      0.500000000000     0.104100000000     0.229233333333     0          
O        O      0.562566666667     0.166666666667     0.229233333333     0          
O        O      0.500000000000     0.104100000000     0.104100000000     0          
O        O      0.562566666667     0.166666666667     0.104100000000     0          
O        O      0.500000000000     0.229233333333     0.104100000000     0          
O        O      0.437433333333     0.166666666667     0.104100000000     0          
O        O      0.416666666667     0.083333333333     0.416666666667     0          
O        O      0.395900000000     0.062566666667     0.333333333333     0          
T        Si     0.385466666667     0.052133333333     0.385466666667     0          
O        O      0.583333333333     0.083333333333     0.416666666667     0          
O        O      0.604100000000     0.062566666667     0.333333333333     0          
T        Si     0.614533333333     0.052133333333     0.385466666667     0          
O        O      0.583333333333     0.250000000000     0.416666666667     0          
O        O      0.604100000000     0.270766666667     0.333333333333     0          
T        Si     0.614533333333     0.281200000000     0.385466666667     0          
O        O      0.416666666667     0.250000000000     0.416666666667     0          
O        O      0.395900000000     0.270766666667     0.333333333333     0          
T        Si     0.385466666667     0.281200000000     0.385466666667     0          
O        O      0.416666666667     0.250000000000     0.583333333333     0          
T        Si     0.385466666667     0.281200000000     0.614533333333     0          
O        O      0.416666666667     0.083333333333     0.583333333333     0          
T        Si     0.385466666667     0.052133333333     0.614533333333     0          
O        O      0.583333333333     0.083333333333     0.583333333333     0          
T        Si     0.614533333333     0.052133333333     0.614533333333     0          
O        O      0.583333333333     0.250000000000     0.583333333333     0          
T        Si     0.614533333333     0.281200000000     0.614533333333     0          
O        O      0.333333333333     0.062566666667     0.395900000000     0          
O        O      0.604100000000     0.000000000000     0.395900000000     0          
O        O      0.333333333333     0.270766666667     0.395900000000     0          
O        O      0.395900000000     0.000000000000     0.395900000000     0          
O        O      0.333333333333     0.270766666667     0.604100000000     0          
O        O      0.395900000000     0.000000000000     0.604100000000     0          
O        O      0.333333333333     0.062566666667     0.604100000000     0          
O        O      0.604100000000     0.000000000000     0.604100000000     0          
O        O      0.562566666667     0.229233333333     0.500000000000     0          
T        Si     0.552133333333     0.218800000000     0.552133333333     0          
O        O      0.437433333333     0.229233333333     0.500000000000     0          
T        Si     0.447866666667     0.218800000000     0.552133333333     0          
O        O      0.437433333333     0.104100000000     0.500000000000     0          
T        Si     0.447866666667     0.114533333333     0.552133333333     0          
O        O      0.562566666667     0.104100000000     0.500000000000     0          
T        Si     0.552133333333     0.114533333333     0.552133333333     0          
T        Si     0.552133333333     0.114533333333     0.447866666667     0          
T        Si     0.552133333333     0.218800000000     0.447866666667     0          
T        Si     0.447866666667     0.218800000000     0.447866666667     0          
T        Si     0.447866666667     0.114533333333     0.447866666667     0          
O        O      0.500000000000     0.229233333333     0.562566666667     0          
O        O      0.437433333333     0.166666666667     0.562566666667     0          
O        O      0.500000000000     0.104100000000     0.562566666667     0          
O        O      0.562566666667     0.166666666667     0.562566666667     0          
O        O      0.500000000000     0.104100000000     0.437433333333     0          
O        O      0.562566666667     0.166666666667     0.437433333333     0          
O        O      0.500000000000     0.229233333333     0.437433333333     0          
O        O      0.437433333333     0.166666666667     0.437433333333     0          
O        O      0.416666666667     0.083333333333     0.750000000000     0          
O        O      0.395900000000     0.062566666667     0.666666666667     0          
T        Si     0.385466666667     0.052133333333     0.718800000000     0          
O        O      0.583333333333     0.083333333333     0.750000000000     0          
O        O      0.604100000000     0.062566666667     0.666666666667     0          
T        Si     0.614533333333     0.052133333333     0.718800000000     0          
O        O      0.583333333333     0.250000000000     0.750000000000     0          
O        O      0.604100000000     0.270766666667     0.666666666667     0          
T        Si     0.614533333333     0.281200000000     0.718800000000     0          
O        O      0.416666666667     0.250000000000     0.750000000000     0          
O        O      0.395900000000     0.270766666667     0.666666666667     0          
T        Si     0.385466666667     0.281200000000     0.718800000000     0          
O        O      0.416666666667     0.250000000000     0.916666666667     0          
T        Si     0.385466666667     0.281200000000     0.947866666667     0          
O        O      0.416666666667     0.083333333333     0.916666666667     0          
T        Si     0.385466666667     0.052133333333     0.947866666667     0          
O        O      0.583333333333     0.083333333333     0.916666666667     0          
T        Si     0.614533333333     0.052133333333     0.947866666667     0          
O        O      0.583333333333     0.250000000000     0.916666666667     0          
T        Si     0.614533333333     0.281200000000     0.947866666667     0          
O        O      0.333333333333     0.062566666667     0.729233333333     0          
O        O      0.604100000000     0.000000000000     0.729233333333     0          
O        O      0.333333333333     0.270766666667     0.729233333333     0          
O        O      0.395900000000     0.000000000000     0.729233333333     0          
O        O      0.333333333333     0.270766666667     0.937433333333     0          
O        O      0.395900000000     0.000000000000     0.937433333333     0          
O        O      0.333333333333     0.062566666667     0.937433333333     0          
O        O      0.604100000000     0.000000000000     0.937433333333     0          
O        O      0.562566666667     0.229233333333     0.833333333333     0          
T        Si     0.552133333333     0.218800000000     0.885466666667     0          
O        O      0.437433333333     0.229233333333     0.833333333333     0          
T        Si     0.447866666667     0.218800000000     0.885466666667     0          
O        O      0.437433333333     0.104100000000     0.833333333333     0          
T        Si     0.447866666667     0.114533333333     0.885466666667     0          
O        O      0.562566666667     0.104100000000     0.833333333333     0          
T        Si     0.552133333333     0.114533333333     0.885466666667     0          
T        Si     0.552133333333     0.114533333333     0.781200000000     0          
T        Si     0.552133333333     0.218800000000     0.781200000000     0          
T        Si     0.447866666667     0.218800000000     0.781200000000     0          
T        Si     0.447866666667     0.114533333333     0.781200000000     0          
O        O      0.500000000000     0.229233333333     0.895900000000     0          
O        O      0.437433333333     0.166666666667     0.895900000000     0          
O        O      0.500000000000     0.104100000000     0.895900000000     0          
O        O      0.562566666667     0.166666666667     0.895900000000     0          
O        O      0.500000000000     0.104100000000     0.770766666667     0          
O        O      0.562566666667     0.166666666667     0.770766666667     0          
O        O      0.500000000000     0.229233333333     0.770766666667     0          
O        O      0.437433333333     0.166666666667     0.770766666667     0          
O        O      0.416666666667     0.416666666667     0.083333333333     0          
O        O      0.395900000000     0.395900000000     0.000000000000     0          
T        Si     0.385466666667     0.385466666667     0.052133333333     0          
O        O      0.583333333333     0.416666666667     0.083333333333     0          
O        O      0.604100000000     0.395900000000     0.000000000000     0          
T        Si     0.614533333333     0.385466666667     0.052133333333     0          
O        O      0.583333333333     0.583333333333     0.083333333333     0          
O        O      0.604100000000     0.604100000000     0.000000000000     0          
T        Si     0.614533333333     0.614533333333     0.052133333333     0          
O        O      0.416666666667     0.583333333333     0.083333333333     0          
O        O      0.395900000000     0.604100000000     0.000000000000     0          
T        Si     0.385466666667     0.614533333333     0.052133333333     0          
O        O      0.416666666667     0.583333333333     0.250000000000     0          
T        Si     0.385466666667     0.614533333333     0.281200000000     0          
O        O      0.416666666667     0.416666666667     0.250000000000     0          
T        Si     0.385466666667     0.385466666667     0.281200000000     0          
O        O      0.583333333333     0.416666666667     0.250000000000     0          
T        Si     0.614533333333     0.385466666667     0.281200000000     0          
O        O      0.583333333333     0.583333333333     0.250000000000     0          
T        Si     0.614533333333     0.614533333333     0.281200000000     0          
O        O      0.333333333333     0.395900000000     0.062566666667     0          
O        O      0.604100000000     0.333333333333     0.062566666667     0          
O        O      0.333333333333     0.604100000000     0.062566666667     0          
O        O      0.395900000000     0.333333333333     0.062566666667     0          
O        O      0.333333333333     0.604100000000     0.270766666667     0          
O        O      0.395900000000     0.333333333333     0.270766666667     0          
O        O      0.333333333333     0.395900000000     0.270766666667     0          
O        O      0.604100000000     0.333333333333     0.270766666667     0          
O        O      0.562566666667     0.562566666667     0.166666666667     0          
T        Si     0.552133333333     0.552133333333     0.218800000000     0          
O        O      0.437433333333     0.562566666667     0.166666666667     0          
T        Si     0.447866666667     0.552133333333     0.218800000000     0          
O        O      0.437433333333     0.437433333333     0.166666666667     0          
T        Si     0.447866666667     0.447866666667     0.218800000000     0          
O        O      0.562566666667     0.437433333333     0.166666666667     0          
T        Si     0.552133333333     0.447866666667     0.218800000000     0          
T        Si     0.552133333333     0.447866666667     0.114533333333     0          
T        Si     0.552133333333     0.552133333333     0.114533333333     0          
T        Si     0.447866666667     0.552133333333     0.114533333333     0          
T        Si     0.447866666667     0.447866666667     0.114533333333     0          
O        O      0.500000000000     0.562566666667     0.229233333333     0          
O        O      0.437433333333     0.500000000000     0.229233333333     0          
O        O      0.500000000000     0.437433333333     0.229233333333     0          
O        O      0.562566666667     0.500000000000     0.229233333333     0          
O        O      0.500000000000     0.437433333333     0.104100000000     0          
O        O      0.562566666667     0.500000000000     0.104100000000     0          
O        O      0.500000000000     0.562566666667     0.104100000000     0          
O        O      0.437433333333     0.500000000000     0.104100000000     0          
O        O      0.416666666667     0.416666666667     0.416666666667     0          
O        O      0.395900000000     0.395900000000     0.333333333333     0          
T        Si     0.385466666667     0.385466666667     0.385466666667     0          
O        O      0.583333333333     0.416666666667     0.416666666667     0          
O        O      0.604100000000     0.395900000000     0.333333333333     0          
T        Si     0.614533333333     0.385466666667     0.385466666667     0          
O        O      0.583333333333     0.583333333333     0.416666666667     0          
O        O      0.604100000000     0.604100000000     0.333333333333     0          
T        Si     0.614533333333     0.614533333333     0.385466666667     0          
O        O      0.416666666667     0.583333333333     0.416666666667     0          
O        O      0.395900000000     0.604100000000     0.333333333333     0          
T        Si     0.385466666667     0.614533333333     0.385466666667     0          
O        O      0.416666666667     0.583333333333     0.583333333333     0          
T        Si     0.385466666667     0.614533333333     0.614533333333     0          
O        O      0.416666666667     0.416666666667     0.583333333333     0          
T        Si     0.385466666667     0.385466666667     0.614533333333     0          
O        O      0.583333333333     0.416666666667     0.583333333333     0          
T        Si     0.614533333333     0.385466666667     0.614533333333     0          
O        O      0.583333333333     0.583333333333     0.583333333333     0          
T        Si     0.614533333333     0.614533333333     0.614533333333     0          
O        O      0.333333333333     0.395900000000     0.395900000000     0          
O        O      0.604100000000     0.333333333333     0.395900000000     0          
O        O      0.333333333333     0.604100000000     0.395900000000     0          
O        O      0.395900000000     0.333333333333     0.395900000000     0          
O        O      0.333333333333     0.604100000000     0.604100000000     0          
O        O      0.395900000000     0.333333333333     0.604100000000     0          
O        O      0.333333333333     0.395900000000     0.604100000000     0          
O        O      0.604100000000     0.333333333333     0.604100000000     0          
O        O      0.562566666667     0.562566666667     0.500000000000     0          
T        Si     0.552133333333     0.552133333333     0.552133333333     0          
O        O      0.437433333333     0.562566666667     0.500000000000     0          
T        Si     0.447866666667     0.552133333333     0.552133333333     0          
O        O      0.437433333333     0.437433333333     0.500000000000     0          
T        Si     0.447866666667     0.447866666667     0.552133333333     0          
O        O      0.562566666667     0.437433333333     0.500000000000     0          
T        Si     0.552133333333     0.447866666667     0.552133333333     0          
T        Si     0.552133333333     0.447866666667     0.447866666667     0          
T        Si     0.552133333333     0.552133333333     0.447866666667     0          
T        Si     0.447866666667     0.552133333333     0.447866666667     0          
T        Si     0.447866666667     0.447866666667     0.447866666667     0          
O        O      0.500000000000     0.562566666667     0.562566666667     0          
O        O      0.437433333333     0.500000000000     0.562566666667     0          
O        O      0.500000000000     0.437433333333     0.562566666667     0          
O        O      0.562566666667     0.500000000000     0.562566666667     0          
O        O      0.500000000000     0.437433333333     0.437433333333     0          
O        O      0.562566666667     0.500000000000     0.437433333333     0          
O        O      0.500000000000     0.562566666667     0.437433333333     0          
O        O      0.437433333333     0.500000000000     0.437433333333     0          
O        O      0.416666666667     0.416666666667     0.750000000000     0          
O        O      0.395900000000     0.395900000000     0.666666666667     0          
T        Si     0.385466666667     0.385466666667     0.718800000000     0          
O        O      0.583333333333     0.416666666667     0.750000000000     0          
O        O      0.604100000000     0.395900000000     0.666666666667     0          
T        Si     0.614533333333     0.385466666667     0.718800000000     0          
O        O      0.583333333333     0.583333333333     0.750000000000     0          
O        O      0.604100000000     0.604100000000     0.666666666667     0          
T        Si     0.614533333333     0.614533333333     0.718800000000     0          
O        O      0.416666666667     0.583333333333     0.750000000000     0          
O        O      0.395900000000     0.604100000000     0.666666666667     0          
T        Si     0.385466666667     0.614533333333     0.718800000000     0          
O        O      0.416666666667     0.583333333333     0.916666666667     0          
T        Si     0.385466666667     0.614533333333     0.947866666667     0          
O        O      0.416666666667     0.416666666667     0.916666666667     0          
T        Si     0.385466666667     0.385466666667     0.947866666667     0          
O        O      0.583333333333     0.416666666667     0.916666666667     0          
T        Si     0.614533333333     0.385466666667     0.947866666667     0          
O        O      0.583333333333     0.583333333333     0.916666666667     0          
T        Si     0.614533333333     0.614533333333     0.947866666667     0          
O        O      0.333333333333     0.395900000000     0.729233333333     0          
O        O      0.604100000000     0.333333333333     0.729233333333     0          
O        O      0.333333333333     0.604100000000     0.729233333333     0          
O        O      0.395900000000     0.333333333333     0.729233333333     0          
O        O      0.333333333333     0.604100000000     0.937433333333     0          
O        O      0.395900000000     0.333333333333     0.937433333333     0          
O        O      0.333333333333     0.395900000000     0.937433333333     0          
O        O      0.604100000000     0.333333333333     0.937433333333     0          
O        O      0.562566666667     0.562566666667     0.833333333333     0          
T        Si     0.552133333333     0.552133333333     0.885466666667     0          
O        O      0.437433333333     0.562566666667     0.833333333333     0          
T        Si     0.447866666667     0.552133333333     0.885466666667     0          
O        O      0.437433333333     0.437433333333     0.833333333333     0          
T        Si     0.447866666667     0.447866666667     0.885466666667     0          
O        O      0.562566666667     0.437433333333     0.833333333333     0          
T        Si     0.552133333333     0.447866666667     0.885466666667     0          
T        Si     0.552133333333     0.447866666667     0.781200000000     0          
T        Si     0.552133333333     0.552133333333     0.781200000000     0          
T        Si     0.447866666667     0.552133333333     0.781200000000     0          
T        Si     0.447866666667     0.447866666667     0.781200000000     0          
O        O      0.500000000000     0.562566666667     0.895900000000     0          
O        O      0.437433333333     0.500000000000     0.895900000000     0          
O        O      0.500000000000     0.437433333333     0.895900000000     0          
O        O      0.562566666667     0.500000000000     0.895900000000     0          
O        O      0.500000000000     0.437433333333     0.770766666667     0          
O        O      0.562566666667     0.500000000000     0.770766666667     0          
O        O      0.500000000000     0.562566666667     0.770766666667     0          
O        O      0.437433333333     0.500000000000     0.770766666667     0          
O        O      0.416666666667     0.750000000000     0.083333333333     0          
O        O      0.395900000000     0.729233333333     0.000000000000     0          
T        Si     0.385466666667     0.718800000000     0.052133333333     0          
O        O      0.583333333333     0.750000000000     0.083333333333     0          
O        O      0.604100000000     0.729233333333     0.000000000000     0          
T        Si     0.614533333333     0.718800000000     0.052133333333     0          
O        O      0.583333333333     0.916666666667     0.083333333333     0          
O        O      0.604100000000     0.937433333333     0.000000000000     0          
T        Si     0.614533333333     0.947866666667     0.052133333333     0          
O        O      0.416666666667     0.916666666667     0.083333333333     0          
O        O      0.395900000000     0.937433333333     0.000000000000     0          
T        Si     0.385466666667     0.947866666667     0.052133333333     0          
O        O      0.416666666667     0.916666666667     0.250000000000     0          
T        Si     0.385466666667     0.947866666667     0.281200000000     0          
O        O      0.416666666667     0.750000000000     0.250000000000     0          
T        Si     0.385466666667     0.718800000000     0.281200000000     0          
O        O      0.583333333333     0.750000000000     0.250000000000     0          
T        Si     0.614533333333     0.718800000000     0.281200000000     0          
O        O      0.583333333333     0.916666666667     0.250000000000     0          
T        Si     0.614533333333     0.947866666667     0.281200000000     0          
O        O      0.333333333333     0.729233333333     0.062566666667     0          
O        O      0.604100000000     0.666666666667     0.062566666667     0          
O        O      0.333333333333     0.937433333333     0.062566666667     0          
O        O      0.395900000000     0.666666666667     0.062566666667     0          
O        O      0.333333333333     0.937433333333     0.270766666667     0          
O        O      0.395900000000     0.666666666667     0.270766666667     0          
O        O      0.333333333333     0.729233333333     0.270766666667     0          
O        O      0.604100000000     0.666666666667     0.270766666667     0          
O        O      0.562566666667     0.895900000000     0.166666666667     0          
T        Si     0.552133333333     0.885466666667     0.218800000000     0          
O        O      0.437433333333     0.895900000000     0.166666666667     0          
T        Si     0.447866666667     0.885466666667     0.218800000000     0          
O        O      0.437433333333     0.770766666667     0.166666666667     0          
T        Si     0.447866666667     0.781200000000     0.218800000000     0          
O        O      0.562566666667     0.770766666667     0.166666666667     0          
T        Si     0.552133333333     0.781200000000     0.218800000000     0          
T        Si     0.552133333333     0.781200000000     0.114533333333     0          
T        Si     0.552133333333     0.885466666667     0.114533333333     0          
T        Si     0.447866666667     0.885466666667     0.114533333333     0          
T        Si     0.447866666667     0.781200000000     0.114533333333     0          
O        O      0.500000000000     0.895900000000     0.229233333333     0          
O        O      0.437433333333     0.833333333333     0.229233333333     0          
O        O      0.500000000000     0.770766666667     0.229233333333     0          
O        O      0.562566666667     0.833333333333     0.229233333333     0          
O        O      0.500000000000     0.770766666667     0.104100000000     0          
O        O      0.562566666667     0.833333333333     0.104100000000     0          
O        O      0.500000000000     0.895900000000     0.104100000000     0          
O        O      0.437433333333     0.833333333333     0.104100000000     0          
O        O      0.416666666667     0.750000000000     0.416666666667     0          
O        O      0.395900000000     0.729233333333     0.333333333333     0          
T        Si     0.385466666667     0.718800000000     0.385466666667     0          
O        O      0.583333333333     0.750000000000     0.416666666667     0          
O        O      0.604100000000     0.729233333333     0.333333333333     0          
T        Si     0.614533333333     0.718800000000     0.385466666667     0          
O        O      0.583333333333     0.916666666667     0.416666666667     0          
O        O      0.604100000000     0.937433333333     0.333333333333     0          
T        Si     0.614533333333     0.947866666667     0.385466666667     0          
O        O      0.416666666667     0.916666666667     0.416666666667     0          
O        O      0.395900000000     0.937433333333     0.333333333333     0          
T        Si     0.385466666667     0.947866666667     0.385466666667     0          
O        O      0.416666666667     0.916666666667     0.583333333333     0          
T        Si     0.385466666667     0.947866666667     0.614533333333     0          
O        O      0.416666666667     0.750000000000     0.583333333333     0          
T        Si     0.385466666667     0.718800000000     0.614533333333     0          
O        O      0.583333333333     0.750000000000     0.583333333333     0          
T        Si     0.614533333333     0.718800000000     0.614533333333     0          
O        O      0.583333333333     0.916666666667     0.583333333333     0          
T        Si     0.614533333333     0.947866666667     0.614533333333     0          
O        O      0.333333333333     0.729233333333     0.395900000000     0          
O        O      0.604100000000     0.666666666667     0.395900000000     0          
O        O      0.333333333333     0.937433333333     0.395900000000     0          
O        O      0.395900000000     0.666666666667     0.395900000000     0          
O        O      0.333333333333     0.937433333333     0.604100000000     0          
O        O      0.395900000000     0.666666666667     0.604100000000     0          
O        O      0.333333333333     0.729233333333     0.604100000000     0          
O        O      0.604100000000     0.666666666667     0.604100000000     0          
O        O      0.562566666667     0.895900000000     0.500000000000     0          
T        Si     0.552133333333     0.885466666667     0.552133333333     0          
O        O      0.437433333333     0.895900000000     0.500000000000     0          
T        Si     0.447866666667     0.885466666667     0.552133333333     0          
O        O      0.437433333333     0.770766666667     0.500000000000     0          
T        Si     0.447866666667     0.781200000000     0.552133333333     0          
O        O      0.562566666667     0.770766666667     0.500000000000     0          
T        Si     0.552133333333     0.781200000000     0.552133333333     0          
T        Si     0.552133333333     0.781200000000     0.447866666667     0          
T        Si     0.552133333333     0.885466666667     0.447866666667     0          
T        Si     0.447866666667     0.885466666667     0.447866666667     0          
T        Si     0.447866666667     0.781200000000     0.447866666667     0          
O        O      0.500000000000     0.895900000000     0.562566666667     0          
O        O      0.437433333333     0.833333333333     0.562566666667     0          
O        O      0.500000000000     0.770766666667     0.562566666667     0          
O        O      0.562566666667     0.833333333333     0.562566666667     0          
O        O      0.500000000000     0.770766666667     0.437433333333     0          
O        O      0.562566666667     0.833333333333     0.437433333333     0          
O        O      0.500000000000     0.895900000000     0.437433333333     0          
O        O      0.437433333333     0.833333333333     0.437433333333     0          
O        O      0.416666666667     0.750000000000     0.750000000000     0          
O        O      0.395900000000     0.729233333333     0.666666666667     0          
T        Si     0.385466666667     0.718800000000     0.718800000000     0          
O        O      0.583333333333     0.750000000000     0.750000000000     0          
O        O      0.604100000000     0.729233333333     0.666666666667     0          
T        Si     0.614533333333     0.718800000000     0.718800000000     0          
O        O      0.583333333333     0.916666666667     0.750000000000     0          
O        O      0.604100000000     0.937433333333     0.666666666667     0          
T        Si     0.614533333333     0.947866666667     0.718800000000     0          
O        O      0.416666666667     0.916666666667     0.750000000000     0          
O        O      0.395900000000     0.937433333333     0.666666666667     0          
T        Si     0.385466666667     0.947866666667     0.718800000000     0          
O        O      0.416666666667     0.916666666667     0.916666666667     0          
T        Si     0.385466666667     0.947866666667     0.947866666667     0          
O        O      0.416666666667     0.750000000000     0.916666666667     0          
T        Si     0.385466666667     0.718800000000     0.947866666667     0          
O        O      0.583333333333     0.750000000000     0.916666666667     0          
T        Si     0.614533333333     0.718800000000     0.947866666667     0          
O        O      0.583333333333     0.916666666667     0.916666666667     0          
T        Si     0.614533333333     0.947866666667     0.947866666667     0          
O        O      0.333333333333     0.729233333333     0.729233333333     0          
O        O      0.604100000000     0.666666666667     0.729233333333     0          
O        O      0.333333333333     0.937433333333     0.729233333333     0          
O        O      0.395900000000     0.666666666667     0.729233333333     0          
O        O      0.333333333333     0.937433333333     0.937433333333     0          
O        O      0.395900000000     0.666666666667     0.937433333333     0          
O        O      0.333333333333     0.729233333333     0.937433333333     0          
O        O      0.604100000000     0.666666666667     0.937433333333     0          
O        O      0.562566666667     0.895900000000     0.833333333333     0          
T        Si     0.552133333333     0.885466666667     0.885466666667     0          
O        O      0.437433333333     0.895900000000     0.833333333333     0          
T        Si     0.447866666667     0.885466666667     0.885466666667     0          
O        O      0.437433333333     0.770766666667     0.833333333333     0          
T        Si     0.447866666667     0.781200000000     0.885466666667     0          
O        O      0.562566666667     0.770766666667     0.833333333333     0          
T        Si     0.552133333333     0.781200000000     0.885466666667     0          
T        Si     0.552133333333     0.781200000000     0.781200000000     0          
T        Si     0.552133333333     0.885466666667     0.781200000000     0          
T        Si     0.447866666667     0.885466666667     0.781200000000     0          
T        Si     0.447866666667     0.781200000000     0.781200000000     0          
O        O      0.500000000000     0.895900000000     0.895900000000     0          
O        O      0.437433333333     0.833333333333     0.895900000000     0          
O        O      0.500000000000     0.770766666667     0.895900000000     0          
O        O      0.562566666667     0.833333333333     0.895900000000     0          
O        O      0.500000000000     0.770766666667     0.770766666667     0          
O        O      0.562566666667     0.833333333333     0.770766666667     0          
O        O      0.500000000000     0.895900000000     0.770766666667     0          
O        O      0.437433333333     0.833333333333     0.770766666667     0          
O        O      0.750000000000     0.083333333333     0.083333333333     0          
O        O      0.729233333333     0.062566666667     0.000000000000     0          
T        Si     0.718800000000     0.052133333333     0.052133333333     0          
O        O      0.916666666667     0.083333333333     0.083333333333     0          
O        O      0.937433333333     0.062566666667     0.000000000000     0          
T        Si     0.947866666667     0.052133333333     0.052133333333     0          
O        O      0.916666666667     0.250000000000     0.083333333333     0          
O        O      0.937433333333     0.270766666667     0.000000000000     0          
T        Si     0.947866666667     0.281200000000     0.052133333333     0          
O        O      0.750000000000     0.250000000000     0.083333333333     0          
O        O      0.729233333333     0.270766666667     0.000000000000     0          
T        Si     0.718800000000     0.281200000000     0.052133333333     0          
O        O      0.750000000000     0.250000000000     0.250000000000     0          
T        Si     0.718800000000     0.281200000000     0.281200000000     0          
O        O      0.750000000000     0.083333333333     0.250000000000     0          
T        Si     0.718800000000     0.052133333333     0.281200000000     0          
O        O      0.916666666667     0.083333333333     0.250000000000     0          
T        Si     0.947866666667     0.052133333333     0.281200000000     0          
O        O      0.916666666667     0.250000000000     0.250000000000     0          
T        Si     0.947866666667     0.281200000000     0.281200000000     0          
O        O      0.666666666667     0.062566666667     0.062566666667     0          
O        O      0.937433333333     0.000000000000     0.062566666667     0          
O        O      0.666666666667     0.270766666667     0.062566666667     0          
O        O      0.729233333333     0.000000000000     0.062566666667     0          
O        O      0.666666666667     0.270766666667     0.270766666667     0          
O        O      0.729233333333     0.000000000000     0.270766666667     0          
O        O      0.666666666667     0.062566666667     0.270766666667     0          
O        O      0.937433333333     0.000000000000     0.270766666667     0          
O        O      0.895900000000     0.229233333333     0.166666666667     0          
T        Si     0.885466666667     0.218800000000     0.218800000000     0          
O        O      0.770766666667     0.229233333333     0.166666666667     0          
T        Si     0.781200000000     0.218800000000     0.218800000000     0          
O        O      0.770766666667     0.104100000000     0.166666666667     0          
T        Si     0.781200000000     0.114533333333     0.218800000000     0          
O        O      0.895900000000     0.104100000000     0.166666666667     0          
T        Si     0.885466666667     0.114533333333     0.218800000000     0          
T        Si     0.885466666667     0.114533333333     0.114533333333     0          
T        Si     0.885466666667     0.218800000000     0.114533333333     0          
T        Si     0.781200000000     0.218800000000     0.114533333333     0          
T        Si     0.781200000000     0.114533333333     0.114533333333     0          
O        O      0.833333333333     0.229233333333     0.229233333333     0          
O        O      0.770766666667     0.166666666667     0.229233333333     0          
O        O      0.833333333333     0.104100000000     0.229233333333     0          
O        O      0.895900000000     0.166666666667     0.229233333333     0          
O        O      0.833333333333     0.104100000000     0.104100000000     0          
O        O      0.895900000000     0.166666666667     0.104100000000     0          
O        O      0.833333333333     0.229233333333     0.104100000000     0          
O        O      0.770766666667     0.166666666667     0.104100000000     0          
O        O      0.750000000000     0.083333333333     0.416666666667     0          
O        O      0.729233333333     0.062566666667     0.333333333333     0          
T        Si     0.718800000000     0.052133333333     0.385466666667     0          
O        O      0.916666666667     0.083333333333     0.416666666667     0          
O        O      0.937433333333     0.062566666667     0.333333333333     0          
T        Si     0.947866666667     0.052133333333     0.385466666667     0          
O        O      0.916666666667     0.250000000000     0.416666666667     0          
O        O      0.937433333333     0.270766666667     0.333333333333     0          
T        Si     0.947866666667     0.281200000000     0.385466666667     0          
O        O      0.750000000000     0.250000000000     0.416666666667     0          
O        O      0.729233333333     0.270766666667     0.333333333333     0          
T        Si     0.718800000000     0.281200000000     0.385466666667     0          
O        O      0.750000000000     0.250000000000     0.583333333333     0          
T        Si     0.718800000000     0.281200000000     0.614533333333     0          
O        O      0.750000000000     0.083333333333     0.583333333333     0          
T        Si     0.718800000000     0.052133333333     0.614533333333     0          
O        O      0.916666666667     0.083333333333     0.583333333333     0          
T        Si     0.947866666667     0.052133333333     0.614533333333     0          
O        O      0.916666666667     0.250000000000     0.583333333333     0          
T        Si     0.947866666667     0.281200000000     0.614533333333     0          
O        O      0.666666666667     0.062566666667     0.395900000000     0          
O        O      0.937433333333     0.000000000000     0.395900000000     0          
O        O      0.666666666667     0.270766666667     0.395900000000     0          
O        O      0.729233333333     0.000000000000     0.395900000000     0          
O        O      0.666666666667     0.270766666667     0.604100000000     0          
O        O      0.729233333333     0.000000000000     0.604100000000     0          
O        O      0.666666666667     0.062566666667     0.604100000000     0          
O        O      0.937433333333     0.000000000000     0.604100000000     0          
O        O      0.895900000000     0.229233333333     0.500000000000     0          
T        Si     0.885466666667     0.218800000000     0.552133333333     0          
O        O      0.770766666667     0.229233333333     0.500000000000     0          
T        Si     0.781200000000     0.218800000000     0.552133333333     0          
O        O      0.770766666667     0.104100000000     0.500000000000     0          
T        Si     0.781200000000     0.114533333333     0.552133333333     0          
O        O      0.895900000000     0.104100000000     0.500000000000     0          
T        Si     0.885466666667     0.114533333333     0.552133333333     0          
T        Si     0.885466666667     0.114533333333     0.447866666667     0          
T        Si     0.885466666667     0.218800000000     0.447866666667     0          
T        Si     0.781200000000     0.218800000000     0.447866666667     0          
T        Si     0.781200000000     0.114533333333     0.447866666667     0          
O        O      0.833333333333     0.229233333333     0.562566666667     0          
O        O      0.770766666667     0.166666666667     0.562566666667     0          
O        O      0.833333333333     0.104100000000     0.562566666667     0          
O        O      0.895900000000     0.166666666667     0.562566666667     0          
O        O      0.833333333333     0.104100000000     0.437433333333     0          
O        O      0.895900000000     0.166666666667     0.437433333333     0          
O        O      0.833333333333     0.229233333333     0.437433333333     0          
O        O      0.770766666667     0.166666666667     0.437433333333     0          
O        O      0.750000000000     0.083333333333     0.750000000000     0          
O        O      0.729233333333     0.062566666667     0.666666666667     0          
T        Si     0.718800000000     0.052133333333     0.718800000000     0          
O        O      0.916666666667     0.083333333333     0.750000000000     0          
O        O      0.937433333333     0.062566666667     0.666666666667     0          
T        Si     0.947866666667     0.052133333333     0.718800000000     0          
O        O      0.916666666667     0.250000000000     0.750000000000     0          
O        O      0.937433333333     0.270766666667     0.666666666667     0          
T        Si     0.947866666667     0.281200000000     0.718800000000     0          
O        O      0.750000000000     0.250000000000     0.750000000000     0          
O        O      0.729233333333     0.270766666667     0.666666666667     0          
T        Si     0.718800000000     0.281200000000     0.718800000000     0          
O        O      0.750000000000     0.250000000000     0.916666666667     0          
T        Si     0.718800000000     0.281200000000     0.947866666667     0          
O        O      0.750000000000     0.083333333333     0.916666666667     0          
T        Si     0.718800000000     0.052133333333     0.947866666667     0          
O        O      0.916666666667     0.083333333333     0.916666666667     0          
T        Si     0.947866666667     0.052133333333     0.947866666667     0          
O        O      0.916666666667     0.250000000000     0.916666666667     0          
T        Si     0.947866666667     0.281200000000     0.947866666667     0          
O        O      0.666666666667     0.062566666667     0.729233333333     0          
O        O      0.937433333333     0.000000000000     0.729233333333     0          
O        O      0.666666666667     0.270766666667     0.729233333333     0          
O        O      0.729233333333     0.000000000000     0.729233333333     0          
O        O      0.666666666667     0.270766666667     0.937433333333     0          
O        O      0.729233333333     0.000000000000     0.937433333333     0          
O        O      0.666666666667     0.062566666667     0.937433333333     0          
O        O      0.937433333333     0.000000000000     0.937433333333     0          
O        O      0.895900000000     0.229233333333     0.833333333333     0          
T        Si     0.885466666667     0.218800000000     0.885466666667     0          
O        O      0.770766666667     0.229233333333     0.833333333333     0          
T        Si     0.781200000000     0.218800000000     0.885466666667     0          
O        O      0.770766666667     0.104100000000     0.833333333333     0          
T        Si     0.781200000000     0.114533333333     0.885466666667     0          
O        O      0.895900000000     0.104100000000     0.833333333333     0          
T        Si     0.885466666667     0.114533333333     0.885466666667     0          
T        Si     0.885466666667     0.114533333333     0.781200000000     0          
T        Si     0.885466666667     0.218800000000     0.781200000000     0          
T        Si     0.781200000000     0.218800000000     0.781200000000     0          
T        Si     0.781200000000     0.114533333333     0.781200000000     0          
O        O      0.833333333333     0.229233333333     0.895900000000     0          
O        O      0.770766666667     0.166666666667     0.895900000000     0          
O        O      0.833333333333     0.104100000000     0.895900000000     0          
O        O      0.895900000000     0.166666666667     0.895900000000     0          
O        O      0.833333333333     0.104100000000     0.770766666667     0          
O        O      0.895900000000     0.166666666667     0.770766666667     0          
O        O      0.833333333333     0.229233333333     0.770766666667     0          
O        O      0.770766666667     0.166666666667     0.770766666667     0          
O        O      0.750000000000     0.416666666667     0.083333333333     0          
O        O      0.729233333333     0.395900000000     0.000000000000     0          
T        Si     0.718800000000     0.385466666667     0.052133333333     0          
O        O      0.916666666667     0.416666666667     0.083333333333     0          
O        O      0.937433333333     0.395900000000     0.000000000000     0          
T        Si     0.947866666667     0.385466666667     0.052133333333     0          
O        O      0.916666666667     0.583333333333     0.083333333333     0          
O        O      0.937433333333     0.604100000000     0.000000000000     0          
T        Si     0.947866666667     0.614533333333     0.052133333333     0          
O        O      0.750000000000     0.583333333333     0.083333333333     0          
O        O      0.729233333333     0.604100000000     0.000000000000     0          
T        Si     0.718800000000     0.614533333333     0.052133333333     0          
O        O      0.750000000000     0.583333333333     0.250000000000     0          
T        Si     0.718800000000     0.614533333333     0.281200000000     0          
O        O      0.750000000000     0.416666666667     0.250000000000     0          
T        Si     0.718800000000     0.385466666667     0.281200000000     0          
O        O      0.916666666667     0.416666666667     0.250000000000     0          
T        Si     0.947866666667     0.385466666667     0.281200000000     0          
O        O      0.916666666667     0.583333333333     0.250000000000     0          
T        Si     0.947866666667     0.614533333333     0.281200000000     0          
O        O      0.666666666667     0.395900000000     0.062566666667     0          
O        O      0.937433333333     0.333333333333     0.062566666667     0          
O        O      0.666666666667     0.604100000000     0.062566666667     0          
O        O      0.729233333333     0.333333333333     0.062566666667     0          
O        O      0.666666666667     0.604100000000     0.270766666667     0          
O        O      0.729233333333     0.333333333333     0.270766666667     0          
O        O      0.666666666667     0.395900000000     0.270766666667     0          
O        O      0.937433333333     0.333333333333     0.270766666667     0          
O        O      0.895900000000     0.562566666667     0.166666666667     0          
T        Si     0.885466666667     0.552133333333     0.218800000000     0          
O        O      0.770766666667     0.562566666667     0.166666666667     0          
T        Si     0.781200000000     0.552133333333     0.218800000000     0          
O        O      0.770766666667     0.437433333333     0.166666666667     0          
T        Si     0.781200000000     0.447866666667     0.218800000000     0          
O        O      0.895900000000     0.437433333333     0.166666666667     0          
T        Si     0.885466666667     0.447866666667     0.218800000000     0          
T        Si     0.885466666667     0.447866666667     0.114533333333     0          
T        Si     0.885466666667     0.552133333333     0.114533333333     0          
T        Si     0.781200000000     0.552133333333     0.114533333333     0          
T        Si     0.781200000000     0.447866666667     0.114533333333     0          
O        O      0.833333333333     0.562566666667     0.229233333333     0          
O        O      0.770766666667     0.500000000000     0.229233333333     0          
O        O      0.833333333333     0.437433333333     0.229233333333     0          
O        O      0.895900000000     0.500000000000     0.229233333333     0          
O        O      0.833333333333     0.437433333333     0.104100000000     0          
O        O      0.895900000000     0.500000000000     0.104100000000     0          
O        O      0.833333333333     0.562566666667     0.104100000000     0          
O        O      0.770766666667     0.500000000000     0.104100000000     0          
O        O      0.750000000000     0.416666666667     0.416666666667     0          
O        O      0.729233333333     0.395900000000     0.333333333333     0          
T        Si     0.718800000000     0.385466666667     0.385466666667     0          
O        O      0.916666666667     0.416666666667     0.416666666667     0          
O        O      0.937433333333     0.395900000000     0.333333333333     0          
T        Si     0.947866666667     0.385466666667     0.385466666667     0          
O        O      0.916666666667     0.583333333333     0.416666666667     0          
O        O      0.937433333333     0.604100000000     0.333333333333     0          
T        Si     0.947866666667     0.614533333333     0.385466666667     0          
O        O      0.750000000000     0.583333333333     0.416666666667     0          
O        O      0.729233333333     0.604100000000     0.333333333333     0          
T        Si     0.718800000000     0.614533333333     0.385466666667     0          
O        O      0.750000000000     0.583333333333     0.583333333333     0          
T        Si     0.718800000000     0.614533333333     0.614533333333     0          
O        O      0.750000000000     0.416666666667     0.583333333333     0          
T        Si     0.718800000000     0.385466666667     0.614533333333     0          
O        O      0.916666666667     0.416666666667     0.583333333333     0          
T        Si     0.947866666667     0.385466666667     0.614533333333     0          
O        O      0.916666666667     0.583333333333     0.583333333333     0          
T        Si     0.947866666667     0.614533333333     0.614533333333     0          
O        O      0.666666666667     0.395900000000     0.395900000000     0          
O        O      0.937433333333     0.333333333333     0.395900000000     0          
O        O      0.666666666667     0.604100000000     0.395900000000     0          
O        O      0.729233333333     0.333333333333     0.395900000000     0          
O        O      0.666666666667     0.604100000000     0.604100000000     0          
O        O      0.729233333333     0.333333333333     0.604100000000     0          
O        O      0.666666666667     0.395900000000     0.604100000000     0          
O        O      0.937433333333     0.333333333333     0.604100000000     0          
O        O      0.895900000000     0.562566666667     0.500000000000     0          
T        Si     0.885466666667     0.552133333333     0.552133333333     0          
O        O      0.770766666667     0.562566666667     0.500000000000     0          
T        Si     0.781200000000     0.552133333333     0.552133333333     0          
O        O      0.770766666667     0.437433333333     0.500000000000     0          
T        Si     0.781200000000     0.447866666667     0.552133333333     0          
O        O      0.895900000000     0.437433333333     0.500000000000     0          
T        Si     0.885466666667     0.447866666667     0.552133333333     0          
T        Si     0.885466666667     0.447866666667     0.447866666667     0          
T        Si     0.885466666667     0.552133333333     0.447866666667     0          
T        Si     0.781200000000     0.552133333333     0.447866666667     0          
T        Si     0.781200000000     0.447866666667     0.447866666667     0          
O        O      0.833333333333     0.562566666667     0.562566666667     0          
O        O      0.770766666667     0.500000000000     0.562566666667     0          
O        O      0.833333333333     0.437433333333     0.562566666667     0          
O        O      0.895900000000     0.500000000000     0.562566666667     0          
O        O      0.833333333333     0.437433333333     0.437433333333     0          
O        O      0.895900000000     0.500000000000     0.437433333333     0          
O        O      0.833333333333     0.562566666667     0.437433333333     0          
O        O      0.770766666667     0.500000000000     0.437433333333     0          
O        O      0.750000000000     0.416666666667     0.750000000000     0          
O        O      0.729233333333     0.395900000000     0.666666666667     0          
T        Si     0.718800000000     0.385466666667     0.718800000000     0          
O        O      0.916666666667     0.416666666667     0.750000000000     0          
O        O      0.937433333333     0.395900000000     0.666666666667     0          
T        Si     0.947866666667     0.385466666667     0.718800000000     0          
O        O      0.916666666667     0.583333333333     0.750000000000     0          
O        O      0.937433333333     0.604100000000     0.666666666667     0          
T        Si     0.947866666667     0.614533333333     0.718800000000     0          
O        O      0.750000000000     0.583333333333     0.750000000000     0          
O        O      0.729233333333     0.604100000000     0.666666666667     0          
T        Si     0.718800000000     0.614533333333     0.718800000000     0          
O        O      0.750000000000     0.583333333333     0.916666666667     0          
T        Si     0.718800000000     0.614533333333     0.947866666667     0          
O        O      0.750000000000     0.416666666667     0.916666666667     0          
T        Si     0.718800000000     0.385466666667     0.947866666667     0          
O        O      0.916666666667     0.416666666667     0.916666666667     0          
T        Si     0.947866666667     0.385466666667     0.947866666667     0          
O        O      0.916666666667     0.583333333333     0.916666666667     0          
T        Si     0.947866666667     0.614533333333     0.947866666667     0          
O        O      0.666666666667     0.395900000000     0.729233333333     0          
O        O      0.937433333333     0.333333333333     0.729233333333     0          
O        O      0.666666666667     0.604100000000     0.729233333333     0          
O        O      0.729233333333     0.333333333333     0.729233333333     0          
O        O      0.666666666667     0.604100000000     0.937433333333     0          
O        O      0.729233333333     0.333333333333     0.937433333333     0          
O        O      0.666666666667     0.395900000000     0.937433333333     0          
O        O      0.937433333333     0.333333333333     0.937433333333     0          
O        O      0.895900000000     0.562566666667     0.833333333333     0          
T        Si     0.885466666667     0.552133333333     0.885466666667     0          
O        O      0.770766666667     0.562566666667     0.833333333333     0          
T        Si     0.781200000000     0.552133333333     0.885466666667     0          
O        O      0.770766666667     0.437433333333     0.833333333333     0          
T        Si     0.781200000000     0.447866666667     0.885466666667     0          
O        O      0.895900000000     0.437433333333     0.833333333333     0          
T        Si     0.885466666667     0.447866666667     0.885466666667     0          
T        Si     0.885466666667     0.447866666667     0.781200000000     0          
T        Si     0.885466666667     0.552133333333     0.781200000000     0          
T        Si     0.781200000000     0.552133333333     0.781200000000     0          
T        Si     0.781200000000     0.447866666667     0.781200000000     0          
O        O      0.833333333333     0.562566666667     0.895900000000     0          
O        O      0.770766666667     0.500000000000     0.895900000000     0          
O        O      0.833333333333     0.437433333333     0.895900000000     0          
O        O      0.895900000000     0.500000000000     0.895900000000     0          
O        O      0.833333333333     0.437433333333     0.770766666667     0          
O        O      0.895900000000     0.500000000000     0.770766666667     0          
O        O      0.833333333333     0.562566666667     0.770766666667     0          
O        O      0.770766666667     0.500000000000     0.770766666667     0          
O        O      0.750000000000     0.750000000000     0.083333333333     0          
O        O      0.729233333333     0.729233333333     0.000000000000     0          
T        Si     0.718800000000     0.718800000000     0.052133333333     0          
O        O      0.916666666667     0.750000000000     0.083333333333     0          
O        O      0.937433333333     0.729233333333     0.000000000000     0          
T        Si     0.947866666667     0.718800000000     0.052133333333     0          
O        O      0.916666666667     0.916666666667     0.083333333333     0          
O        O      0.937433333333     0.937433333333     0.000000000000     0          
T        Si     0.947866666667     0.947866666667     0.052133333333     0          
O        O      0.750000000000     0.916666666667     0.083333333333     0          
O        O      0.729233333333     0.937433333333     0.000000000000     0          
T        Si     0.718800000000     0.947866666667     0.052133333333     0          
O        O      0.750000000000     0.916666666667     0.250000000000     0          
T        Si     0.718800000000     0.947866666667     0.281200000000     0          
O        O      0.750000000000     0.750000000000     0.250000000000     0          
T        Si     0.718800000000     0.718800000000     0.281200000000     0          
O        O      0.916666666667     0.750000000000     0.250000000000     0          
T        Si     0.947866666667     0.718800000000     0.281200000000     0          
O        O      0.916666666667     0.916666666667     0.250000000000     0          
T        Si     0.947866666667     0.947866666667     0.281200000000     0          
O        O      0.666666666667     0.729233333333     0.062566666667     0          
O        O      0.937433333333     0.666666666667     0.062566666667     0          
O        O      0.666666666667     0.937433333333     0.062566666667     0          
O        O      0.729233333333     0.666666666667     0.062566666667     0          
O        O      0.666666666667     0.937433333333     0.270766666667     0          
O        O      0.729233333333     0.666666666667     0.270766666667     0          
O        O      0.666666666667     0.729233333333     0.270766666667     0          
O        O      0.937433333333     0.666666666667     0.270766666667     0          
O        O      0.895900000000     0.895900000000     0.166666666667     0          
T        Si     0.885466666667     0.885466666667     0.218800000000     0          
O        O      0.770766666667     0.895900000000     0.166666666667     0          
T        Si     0.781200000000     0.885466666667     0.218800000000     0          
O        O      0.770766666667     0.770766666667     0.166666666667     0          
T        Si     0.781200000000     0.781200000000     0.218800000000     0          
O        O      0.895900000000     0.770766666667     0.166666666667     0          
T        Si     0.885466666667     0.781200000000     0.218800000000     0          
T        Si     0.885466666667     0.781200000000     0.114533333333     0          
T        Si     0.885466666667     0.885466666667     0.114533333333     0          
T        Si     0.781200000000     0.885466666667     0.114533333333     0          
T        Si     0.781200000000     0.781200000000     0.114533333333     0          
O        O      0.833333333333     0.895900000000     0.229233333333     0          
O        O      0.770766666667     0.833333333333     0.229233333333     0          
O        O      0.833333333333     0.770766666667     0.229233333333     0          
O        O      0.895900000000     0.833333333333     0.229233333333     0          
O        O      0.833333333333     0.770766666667     0.104100000000     0          
O        O      0.895900000000     0.833333333333     0.104100000000     0          
O        O      0.833333333333     0.895900000000     0.104100000000     0          
O        O      0.770766666667     0.833333333333     0.104100000000     0          
O        O      0.750000000000     0.750000000000     0.416666666667     0          
O        O      0.729233333333     0.729233333333     0.333333333333     0          
T        Si     0.718800000000     0.718800000000     0.385466666667     0          
O        O      0.916666666667     0.750000000000     0.416666666667     0          
O        O      0.937433333333     0.729233333333     0.333333333333     0          
T        Si     0.947866666667     0.718800000000     0.385466666667     0          
O        O      0.916666666667     0.916666666667     0.416666666667     0          
O        O      0.937433333333     0.937433333333     0.333333333333     0          
T        Si     0.947866666667     0.947866666667     0.385466666667     0          
O        O      0.750000000000     0.916666666667     0.416666666667     0          
O        O      0.729233333333     0.937433333333     0.333333333333     0          
T        Si     0.718800000000     0.947866666667     0.385466666667     0          
O        O      0.750000000000     0.916666666667     0.583333333333     0          
T        Si     0.718800000000     0.947866666667     0.614533333333     0          
O        O      0.750000000000     0.750000000000     0.583333333333     0          
T        Si     0.718800000000     0.718800000000     0.614533333333     0          
O        O      0.916666666667     0.750000000000     0.583333333333     0          
T        Si     0.947866666667     0.718800000000     0.614533333333     0          
O        O      0.916666666667     0.916666666667     0.583333333333     0          
T        Si     0.947866666667     0.947866666667     0.614533333333     0          
O        O      0.666666666667     0.729233333333     0.395900000000     0          
O        O      0.937433333333     0.666666666667     0.395900000000     0          
O        O      0.666666666667     0.937433333333     0.395900000000     0          
O        O      0.729233333333     0.666666666667     0.395900000000     0          
O        O      0.666666666667     0.937433333333     0.604100000000     0          
O        O      0.729233333333     0.666666666667     0.604100000000     0          
O        O      0.666666666667     0.729233333333     0.604100000000     0          
O        O      0.937433333333     0.666666666667     0.604100000000     0          
O        O      0.895900000000     0.895900000000     0.500000000000     0          
T        Si     0.885466666667     0.885466666667     0.552133333333     0          
O        O      0.770766666667     0.895900000000     0.500000000000     0          
T        Si     0.781200000000     0.885466666667     0.552133333333     0          
O        O      0.770766666667     0.770766666667     0.500000000000     0          
T        Si     0.781200000000     0.781200000000     0.552133333333     0          
O        O      0.895900000000     0.770766666667     0.500000000000     0          
T        Si     0.885466666667     0.781200000000     0.552133333333     0          
T        Si     0.885466666667     0.781200000000     0.447866666667     0          
T        Si     0.885466666667     0.885466666667     0.447866666667     0          
T        Si     0.781200000000     0.885466666667     0.447866666667     0          
T        Si     0.781200000000     0.781200000000     0.447866666667     0          
O        O      0.833333333333     0.895900000000     0.562566666667     0          
O        O      0.770766666667     0.833333333333     0.562566666667     0          
O        O      0.833333333333     0.770766666667     0.562566666667     0          
O        O      0.895900000000     0.833333333333     0.562566666667     0          
O        O      0.833333333333     0.770766666667     0.437433333333     0          
O        O      0.895900000000     0.833333333333     0.437433333333     0          
O        O      0.833333333333     0.895900000000     0.437433333333     0          
O        O      0.770766666667     0.833333333333     0.437433333333     0          
O        O      0.750000000000     0.750000000000     0.750000000000     0          
O        O      0.729233333333     0.729233333333     0.666666666667     0          
T        Si     0.718800000000     0.718800000000     0.718800000000     0          
O        O      0.916666666667     0.750000000000     0.750000000000     0          
O        O      0.937433333333     0.729233333333     0.666666666667     0          
T        Si     0.947866666667     0.718800000000     0.718800000000     0          
O        O      0.916666666667     0.916666666667     0.750000000000     0          
O        O      0.937433333333     0.937433333333     0.666666666667     0          
T        Si     0.947866666667     0.947866666667     0.718800000000     0          
O        O      0.750000000000     0.916666666667     0.750000000000     0          
O        O      0.729233333333     0.937433333333     0.666666666667     0          
T        Si     0.718800000000     0.947866666667     0.718800000000     0          
O        O      0.750000000000     0.916666666667     0.916666666667     0          
T        Si     0.718800000000     0.947866666667     0.947866666667     0          
O        O      0.750000000000     0.750000000000     0.916666666667     0          
T        Si     0.718800000000     0.718800000000     0.947866666667     0          
O        O      0.916666666667     0.750000000000     0.916666666667     0          
T        Si     0.947866666667     0.718800000000     0.947866666667     0          
O        O      0.916666666667     0.916666666667     0.916666666667     0          
T        Si     0.947866666667     0.947866666667     0.947866666667     0          
O        O      0.666666666667     0.729233333333     0.729233333333     0          
O        O      0.937433333333     0.666666666667     0.729233333333     0          
O        O      0.666666666667     0.937433333333     0.729233333333     0          
O        O      0.729233333333     0.666666666667     0.729233333333     0          
O        O      0.666666666667     0.937433333333     0.937433333333     0          
O        O      0.729233333333     0.666666666667     0.937433333333     0          
O        O      0.666666666667     0.729233333333     0.937433333333     0          
O        O      0.937433333333     0.666666666667     0.937433333333     0          
O        O      0.895900000000     0.895900000000     0.833333333333     0          
T        Si     0.885466666667     0.885466666667     0.885466666667     0          
O        O      0.770766666667     0.895900000000     0.833333333333     0          
T        Si     0.781200000000     0.885466666667     0.885466666667     0          
O        O      0.770766666667     0.770766666667     0.833333333333     0          
T        Si     0.781200000000     0.781200000000     0.885466666667     0          
O        O      0.895900000000     0.770766666667     0.833333333333     0          
T        Si     0.885466666667     0.781200000000     0.885466666667     0          
T        Si     0.885466666667     0.781200000000     0.781200000000     0          
T        Si     0.885466666667     0.885466666667     0.781200000000     0          
T        Si     0.781200000000     0.885466666667     0.781200000000     0          
T        Si     0.781200000000     0.781200000000     0.781200000000     0          
O        O      0.833333333333     0.895900000000     0.895900000000     0          
O        O      0.770766666667     0.833333333333     0.895900000000     0          
O        O      0.833333333333     0.770766666667     0.895900000000     0          
O        O      0.895900000000     0.833333333333     0.895900000000     0          
O        O      0.833333333333     0.770766666667     0.770766666667     0          
O        O      0.895900000000     0.833333333333     0.770766666667     0          
O        O      0.833333333333     0.895900000000     0.770766666667     0          
O        O      0.770766666667     0.833333333333     0.770766666667     0          


