data_zeolite

_audit_creation_method RASPA-1.0
_audit_creation_date 2021-6-6
_audit_author_name ''

_cell_length_a    41.073
_cell_length_b    41.073
_cell_length_c    29.449
_cell_angle_alpha 90
_cell_angle_beta  90
_cell_angle_gamma 120
_cell_volume      43024.3

_symmetry_cell_setting          hexagonal
_symmetry_space_group_name_Hall 'P 1'
_symmetry_space_group_name_H-M  'P 1'
_symmetry_Int_Tables_number     1

_symmetry_equiv_pos_as_xyz 'x,y,z'

loop_
_atom_site_label
_atom_site_type_symbol
_atom_site_fract_x
_atom_site_fract_y
_atom_site_fract_z
_atom_site_charge
O        O      0.086066666667     0.000400000000     0.250000000000     0          
O        O      0.080500000000     0.040233333333     0.183700000000     0          
O        O      0.102333333333     0.324700000000     0.166400000000     0          
O        O      0.032166666667     0.301166666667     0.189300000000     0          
O        O      0.111566666667     0.137366666667     0.416800000000     0          
O        O      0.071066666667     0.142100000000     0.482800000000     0          
O        O      0.118633333333     0.118633333333     0.500000000000     0          
O        O      0.143766666667     0.189566666667     0.479500000000     0          
O        O      0.158066666667     0.079033333333     0.644600000000     0          
O        O      0.181933333333     0.151400000000     0.650100000000     0          
T        Si     0.075233333333     0.333266666667     0.197400000000     0          
T        Si     0.111300000000     0.146966666667     0.469700000000     0          
T        Si     0.147100000000     0.111066666667     0.636100000000     0          
O        O      0.085666666667     0.086066666667     0.750000000000     0          
O        O      0.040266666667     0.080500000000     0.683700000000     0          
O        O      0.110966666667     0.102333333333     0.666400000000     0          
O        O      0.064333333333     0.032166666667     0.689300000000     0          
O        O      0.307533333333     0.111566666667     0.916800000000     0          
O        O      0.262300000000     0.071066666667     0.982800000000     0          
O        O      0.000000000000     0.118633333333     0.000000000000     0          
O        O      0.287533333333     0.143766666667     0.979500000000     0          
O        O      0.079033333333     0.158066666667     0.144600000000     0          
O        O      0.030533333333     0.181933333333     0.150100000000     0          
T        Si     0.075300000000     0.075233333333     0.697400000000     0          
T        Si     0.297666666667     0.111300000000     0.969700000000     0          
T        Si     0.036033333333     0.147100000000     0.136100000000     0          
O        O      0.332933333333     0.085666666667     0.250000000000     0          
O        O      0.293100000000     0.040266666667     0.183700000000     0          
O        O      0.008633333333     0.110966666667     0.166400000000     0          
O        O      0.032166666667     0.064333333333     0.189300000000     0          
O        O      0.195966666667     0.307533333333     0.416800000000     0          
O        O      0.191233333333     0.262300000000     0.482800000000     0          
O        O      0.214700000000     0.000000000000     0.500000000000     0          
O        O      0.143766666667     0.287533333333     0.479500000000     0          
O        O      0.254300000000     0.079033333333     0.644600000000     0          
O        O      0.181933333333     0.030533333333     0.650100000000     0          
T        Si     0.000066666667     0.075300000000     0.197400000000     0          
T        Si     0.186366666667     0.297666666667     0.469700000000     0          
T        Si     0.222266666667     0.036033333333     0.636100000000     0          
O        O      0.247266666667     0.332933333333     0.750000000000     0          
O        O      0.252833333333     0.293100000000     0.683700000000     0          
O        O      0.231000000000     0.008633333333     0.666400000000     0          
O        O      0.301166666667     0.032166666667     0.689300000000     0          
O        O      0.221766666667     0.195966666667     0.916800000000     0          
O        O      0.262266666667     0.191233333333     0.982800000000     0          
O        O      0.214700000000     0.214700000000     0.000000000000     0          
O        O      0.189566666667     0.143766666667     0.979500000000     0          
O        O      0.175266666667     0.254300000000     0.144600000000     0          
O        O      0.151400000000     0.181933333333     0.150100000000     0          
T        Si     0.258100000000     0.000066666667     0.697400000000     0          
T        Si     0.222033333333     0.186366666667     0.969700000000     0          
T        Si     0.186233333333     0.222266666667     0.136100000000     0          
O        O      0.247666666667     0.247266666667     0.250000000000     0          
O        O      0.293066666667     0.252833333333     0.183700000000     0          
O        O      0.222366666667     0.231000000000     0.166400000000     0          
O        O      0.269000000000     0.301166666667     0.189300000000     0          
O        O      0.025800000000     0.221766666667     0.416800000000     0          
O        O      0.071033333333     0.262266666667     0.482800000000     0          
O        O      0.000000000000     0.214700000000     0.500000000000     0          
O        O      0.045800000000     0.189566666667     0.479500000000     0          
O        O      0.254300000000     0.175266666667     0.644600000000     0          
O        O      0.302800000000     0.151400000000     0.650100000000     0          
T        Si     0.258033333333     0.258100000000     0.197400000000     0          
T        Si     0.035666666667     0.222033333333     0.469700000000     0          
T        Si     0.297300000000     0.186233333333     0.636100000000     0          
O        O      0.000400000000     0.247666666667     0.750000000000     0          
O        O      0.040233333333     0.293066666667     0.683700000000     0          
O        O      0.324700000000     0.222366666667     0.666400000000     0          
O        O      0.301166666667     0.269000000000     0.689300000000     0          
O        O      0.137366666667     0.025800000000     0.916800000000     0          
O        O      0.142100000000     0.071033333333     0.982800000000     0          
O        O      0.118633333333     0.000000000000     0.000000000000     0          
O        O      0.189566666667     0.045800000000     0.979500000000     0          
O        O      0.079033333333     0.254300000000     0.144600000000     0          
O        O      0.151400000000     0.302800000000     0.150100000000     0          
T        Si     0.333266666667     0.258033333333     0.697400000000     0          
T        Si     0.146966666667     0.035666666667     0.969700000000     0          
T        Si     0.111066666667     0.297300000000     0.136100000000     0          
O        O      0.332933333333     0.247266666667     0.250000000000     0          
O        O      0.293100000000     0.252833333333     0.316300000000     0          
O        O      0.008633333333     0.231000000000     0.333600000000     0          
O        O      0.032166666667     0.301166666667     0.310700000000     0          
O        O      0.195966666667     0.221766666667     0.083200000000     0          
O        O      0.191233333333     0.262266666667     0.017200000000     0          
O        O      0.143766666667     0.189566666667     0.020500000000     0          
O        O      0.254300000000     0.175266666667     0.855400000000     0          
O        O      0.181933333333     0.151400000000     0.849900000000     0          
T        Si     0.000066666667     0.258100000000     0.302600000000     0          
T        Si     0.186366666667     0.222033333333     0.030300000000     0          
T        Si     0.222266666667     0.186233333333     0.863900000000     0          
O        O      0.085666666667     0.332933333333     0.750000000000     0          
O        O      0.040266666667     0.293100000000     0.816300000000     0          
O        O      0.110966666667     0.008633333333     0.833600000000     0          
O        O      0.064333333333     0.032166666667     0.810700000000     0          
O        O      0.307533333333     0.195966666667     0.583200000000     0          
O        O      0.262300000000     0.191233333333     0.517200000000     0          
O        O      0.287533333333     0.143766666667     0.520500000000     0          
O        O      0.079033333333     0.254300000000     0.355400000000     0          
O        O      0.030533333333     0.181933333333     0.349900000000     0          
T        Si     0.075300000000     0.000066666667     0.802600000000     0          
T        Si     0.297666666667     0.186366666667     0.530300000000     0          
T        Si     0.036033333333     0.222266666667     0.363900000000     0          
O        O      0.086066666667     0.085666666667     0.250000000000     0          
O        O      0.080500000000     0.040266666667     0.316300000000     0          
O        O      0.102333333333     0.110966666667     0.333600000000     0          
O        O      0.032166666667     0.064333333333     0.310700000000     0          
O        O      0.111566666667     0.307533333333     0.083200000000     0          
O        O      0.071066666667     0.262300000000     0.017200000000     0          
O        O      0.143766666667     0.287533333333     0.020500000000     0          
O        O      0.158066666667     0.079033333333     0.855400000000     0          
O        O      0.181933333333     0.030533333333     0.849900000000     0          
T        Si     0.075233333333     0.075300000000     0.302600000000     0          
T        Si     0.111300000000     0.297666666667     0.030300000000     0          
T        Si     0.147100000000     0.036033333333     0.863900000000     0          
O        O      0.000400000000     0.086066666667     0.750000000000     0          
O        O      0.040233333333     0.080500000000     0.816300000000     0          
O        O      0.324700000000     0.102333333333     0.833600000000     0          
O        O      0.301166666667     0.032166666667     0.810700000000     0          
O        O      0.137366666667     0.111566666667     0.583200000000     0          
O        O      0.142100000000     0.071066666667     0.517200000000     0          
O        O      0.189566666667     0.143766666667     0.520500000000     0          
O        O      0.079033333333     0.158066666667     0.355400000000     0          
O        O      0.151400000000     0.181933333333     0.349900000000     0          
T        Si     0.333266666667     0.075233333333     0.802600000000     0          
T        Si     0.146966666667     0.111300000000     0.530300000000     0          
T        Si     0.111066666667     0.147100000000     0.363900000000     0          
O        O      0.247666666667     0.000400000000     0.250000000000     0          
O        O      0.293066666667     0.040233333333     0.316300000000     0          
O        O      0.222366666667     0.324700000000     0.333600000000     0          
O        O      0.269000000000     0.301166666667     0.310700000000     0          
O        O      0.025800000000     0.137366666667     0.083200000000     0          
O        O      0.071033333333     0.142100000000     0.017200000000     0          
O        O      0.045800000000     0.189566666667     0.020500000000     0          
O        O      0.254300000000     0.079033333333     0.855400000000     0          
O        O      0.302800000000     0.151400000000     0.849900000000     0          
T        Si     0.258033333333     0.333266666667     0.302600000000     0          
T        Si     0.035666666667     0.146966666667     0.030300000000     0          
T        Si     0.297300000000     0.111066666667     0.863900000000     0          
O        O      0.247266666667     0.247666666667     0.750000000000     0          
O        O      0.252833333333     0.293066666667     0.816300000000     0          
O        O      0.231000000000     0.222366666667     0.833600000000     0          
O        O      0.301166666667     0.269000000000     0.810700000000     0          
O        O      0.221766666667     0.025800000000     0.583200000000     0          
O        O      0.262266666667     0.071033333333     0.517200000000     0          
O        O      0.189566666667     0.045800000000     0.520500000000     0          
O        O      0.175266666667     0.254300000000     0.355400000000     0          
O        O      0.151400000000     0.302800000000     0.349900000000     0          
T        Si     0.258100000000     0.258033333333     0.802600000000     0          
T        Si     0.222033333333     0.035666666667     0.530300000000     0          
T        Si     0.186233333333     0.297300000000     0.363900000000     0          
O        O      0.231000000000     0.008633333333     0.833600000000     0          
O        O      0.221766666667     0.195966666667     0.583200000000     0          
O        O      0.214700000000     0.214700000000     0.500000000000     0          
T        Si     0.258100000000     0.000066666667     0.802600000000     0          
T        Si     0.222033333333     0.186366666667     0.530300000000     0          
T        Si     0.186233333333     0.222266666667     0.363900000000     0          
O        O      0.222366666667     0.231000000000     0.333600000000     0          
O        O      0.025800000000     0.221766666667     0.083200000000     0          
O        O      0.000000000000     0.214700000000     0.000000000000     0          
T        Si     0.258033333333     0.258100000000     0.302600000000     0          
T        Si     0.035666666667     0.222033333333     0.030300000000     0          
T        Si     0.297300000000     0.186233333333     0.863900000000     0          
O        O      0.324700000000     0.222366666667     0.833600000000     0          
O        O      0.137366666667     0.025800000000     0.583200000000     0          
O        O      0.118633333333     0.000000000000     0.500000000000     0          
T        Si     0.333266666667     0.258033333333     0.802600000000     0          
T        Si     0.146966666667     0.035666666667     0.530300000000     0          
T        Si     0.111066666667     0.297300000000     0.363900000000     0          
O        O      0.102333333333     0.324700000000     0.333600000000     0          
O        O      0.111566666667     0.137366666667     0.083200000000     0          
O        O      0.118633333333     0.118633333333     0.000000000000     0          
T        Si     0.075233333333     0.333266666667     0.302600000000     0          
T        Si     0.111300000000     0.146966666667     0.030300000000     0          
T        Si     0.147100000000     0.111066666667     0.863900000000     0          
O        O      0.110966666667     0.102333333333     0.833600000000     0          
O        O      0.307533333333     0.111566666667     0.583200000000     0          
O        O      0.000000000000     0.118633333333     0.500000000000     0          
T        Si     0.075300000000     0.075233333333     0.802600000000     0          
T        Si     0.297666666667     0.111300000000     0.530300000000     0          
T        Si     0.036033333333     0.147100000000     0.363900000000     0          
O        O      0.008633333333     0.110966666667     0.333600000000     0          
O        O      0.195966666667     0.307533333333     0.083200000000     0          
O        O      0.214700000000     0.000000000000     0.000000000000     0          
T        Si     0.000066666667     0.075300000000     0.302600000000     0          
T        Si     0.186366666667     0.297666666667     0.030300000000     0          
T        Si     0.222266666667     0.036033333333     0.863900000000     0          
O        O      0.324700000000     0.102333333333     0.666400000000     0          
O        O      0.137366666667     0.111566666667     0.916800000000     0          
T        Si     0.333266666667     0.075233333333     0.697400000000     0          
T        Si     0.146966666667     0.111300000000     0.969700000000     0          
T        Si     0.111066666667     0.147100000000     0.136100000000     0          
O        O      0.222366666667     0.324700000000     0.166400000000     0          
O        O      0.025800000000     0.137366666667     0.416800000000     0          
T        Si     0.258033333333     0.333266666667     0.197400000000     0          
T        Si     0.035666666667     0.146966666667     0.469700000000     0          
T        Si     0.297300000000     0.111066666667     0.636100000000     0          
O        O      0.231000000000     0.222366666667     0.666400000000     0          
O        O      0.221766666667     0.025800000000     0.916800000000     0          
T        Si     0.258100000000     0.258033333333     0.697400000000     0          
T        Si     0.222033333333     0.035666666667     0.969700000000     0          
T        Si     0.186233333333     0.297300000000     0.136100000000     0          
O        O      0.008633333333     0.231000000000     0.166400000000     0          
O        O      0.195966666667     0.221766666667     0.416800000000     0          
T        Si     0.000066666667     0.258100000000     0.197400000000     0          
T        Si     0.186366666667     0.222033333333     0.469700000000     0          
T        Si     0.222266666667     0.186233333333     0.636100000000     0          
O        O      0.110966666667     0.008633333333     0.666400000000     0          
O        O      0.307533333333     0.195966666667     0.916800000000     0          
T        Si     0.075300000000     0.000066666667     0.697400000000     0          
T        Si     0.297666666667     0.186366666667     0.969700000000     0          
T        Si     0.036033333333     0.222266666667     0.136100000000     0          
O        O      0.102333333333     0.110966666667     0.166400000000     0          
O        O      0.111566666667     0.307533333333     0.416800000000     0          
T        Si     0.075233333333     0.075300000000     0.197400000000     0          
T        Si     0.111300000000     0.297666666667     0.469700000000     0          
T        Si     0.147100000000     0.036033333333     0.636100000000     0          
O        O      0.086066666667     0.333733333333     0.250000000000     0          
O        O      0.080500000000     0.373566666667     0.183700000000     0          
O        O      0.102333333333     0.658033333333     0.166400000000     0          
O        O      0.032166666667     0.634500000000     0.189300000000     0          
O        O      0.111566666667     0.470700000000     0.416800000000     0          
O        O      0.071066666667     0.475433333333     0.482800000000     0          
O        O      0.118633333333     0.451966666667     0.500000000000     0          
O        O      0.143766666667     0.522900000000     0.479500000000     0          
O        O      0.158066666667     0.412366666667     0.644600000000     0          
O        O      0.181933333333     0.484733333333     0.650100000000     0          
T        Si     0.075233333333     0.666600000000     0.197400000000     0          
T        Si     0.111300000000     0.480300000000     0.469700000000     0          
T        Si     0.147100000000     0.444400000000     0.636100000000     0          
O        O      0.085666666667     0.419400000000     0.750000000000     0          
O        O      0.040266666667     0.413833333333     0.683700000000     0          
O        O      0.110966666667     0.435666666667     0.666400000000     0          
O        O      0.064333333333     0.365500000000     0.689300000000     0          
O        O      0.307533333333     0.444900000000     0.916800000000     0          
O        O      0.262300000000     0.404400000000     0.982800000000     0          
O        O      0.000000000000     0.451966666667     0.000000000000     0          
O        O      0.287533333333     0.477100000000     0.979500000000     0          
O        O      0.079033333333     0.491400000000     0.144600000000     0          
O        O      0.030533333333     0.515266666667     0.150100000000     0          
T        Si     0.075300000000     0.408566666667     0.697400000000     0          
T        Si     0.297666666667     0.444633333333     0.969700000000     0          
T        Si     0.036033333333     0.480433333333     0.136100000000     0          
O        O      0.332933333333     0.419000000000     0.250000000000     0          
O        O      0.293100000000     0.373600000000     0.183700000000     0          
O        O      0.008633333333     0.444300000000     0.166400000000     0          
O        O      0.032166666667     0.397666666667     0.189300000000     0          
O        O      0.195966666667     0.640866666667     0.416800000000     0          
O        O      0.191233333333     0.595633333333     0.482800000000     0          
O        O      0.214700000000     0.333333333333     0.500000000000     0          
O        O      0.143766666667     0.620866666667     0.479500000000     0          
O        O      0.254300000000     0.412366666667     0.644600000000     0          
O        O      0.181933333333     0.363866666667     0.650100000000     0          
T        Si     0.000066666667     0.408633333333     0.197400000000     0          
T        Si     0.186366666667     0.631000000000     0.469700000000     0          
T        Si     0.222266666667     0.369366666667     0.636100000000     0          
O        O      0.247266666667     0.666266666667     0.750000000000     0          
O        O      0.252833333333     0.626433333333     0.683700000000     0          
O        O      0.231000000000     0.341966666667     0.666400000000     0          
O        O      0.301166666667     0.365500000000     0.689300000000     0          
O        O      0.221766666667     0.529300000000     0.916800000000     0          
O        O      0.262266666667     0.524566666667     0.982800000000     0          
O        O      0.214700000000     0.548033333333     0.000000000000     0          
O        O      0.189566666667     0.477100000000     0.979500000000     0          
O        O      0.175266666667     0.587633333333     0.144600000000     0          
O        O      0.151400000000     0.515266666667     0.150100000000     0          
T        Si     0.258100000000     0.333400000000     0.697400000000     0          
T        Si     0.222033333333     0.519700000000     0.969700000000     0          
T        Si     0.186233333333     0.555600000000     0.136100000000     0          
O        O      0.247666666667     0.580600000000     0.250000000000     0          
O        O      0.293066666667     0.586166666667     0.183700000000     0          
O        O      0.222366666667     0.564333333333     0.166400000000     0          
O        O      0.269000000000     0.634500000000     0.189300000000     0          
O        O      0.025800000000     0.555100000000     0.416800000000     0          
O        O      0.071033333333     0.595600000000     0.482800000000     0          
O        O      0.000000000000     0.548033333333     0.500000000000     0          
O        O      0.045800000000     0.522900000000     0.479500000000     0          
O        O      0.254300000000     0.508600000000     0.644600000000     0          
O        O      0.302800000000     0.484733333333     0.650100000000     0          
T        Si     0.258033333333     0.591433333333     0.197400000000     0          
T        Si     0.035666666667     0.555366666667     0.469700000000     0          
T        Si     0.297300000000     0.519566666667     0.636100000000     0          
O        O      0.000400000000     0.581000000000     0.750000000000     0          
O        O      0.040233333333     0.626400000000     0.683700000000     0          
O        O      0.324700000000     0.555700000000     0.666400000000     0          
O        O      0.301166666667     0.602333333333     0.689300000000     0          
O        O      0.137366666667     0.359133333333     0.916800000000     0          
O        O      0.142100000000     0.404366666667     0.982800000000     0          
O        O      0.118633333333     0.333333333333     0.000000000000     0          
O        O      0.189566666667     0.379133333333     0.979500000000     0          
O        O      0.079033333333     0.587633333333     0.144600000000     0          
O        O      0.151400000000     0.636133333333     0.150100000000     0          
T        Si     0.333266666667     0.591366666667     0.697400000000     0          
T        Si     0.146966666667     0.369000000000     0.969700000000     0          
T        Si     0.111066666667     0.630633333333     0.136100000000     0          
O        O      0.332933333333     0.580600000000     0.250000000000     0          
O        O      0.293100000000     0.586166666667     0.316300000000     0          
O        O      0.008633333333     0.564333333333     0.333600000000     0          
O        O      0.032166666667     0.634500000000     0.310700000000     0          
O        O      0.195966666667     0.555100000000     0.083200000000     0          
O        O      0.191233333333     0.595600000000     0.017200000000     0          
O        O      0.143766666667     0.522900000000     0.020500000000     0          
O        O      0.254300000000     0.508600000000     0.855400000000     0          
O        O      0.181933333333     0.484733333333     0.849900000000     0          
T        Si     0.000066666667     0.591433333333     0.302600000000     0          
T        Si     0.186366666667     0.555366666667     0.030300000000     0          
T        Si     0.222266666667     0.519566666667     0.863900000000     0          
O        O      0.085666666667     0.666266666667     0.750000000000     0          
O        O      0.040266666667     0.626433333333     0.816300000000     0          
O        O      0.110966666667     0.341966666667     0.833600000000     0          
O        O      0.064333333333     0.365500000000     0.810700000000     0          
O        O      0.307533333333     0.529300000000     0.583200000000     0          
O        O      0.262300000000     0.524566666667     0.517200000000     0          
O        O      0.287533333333     0.477100000000     0.520500000000     0          
O        O      0.079033333333     0.587633333333     0.355400000000     0          
O        O      0.030533333333     0.515266666667     0.349900000000     0          
T        Si     0.075300000000     0.333400000000     0.802600000000     0          
T        Si     0.297666666667     0.519700000000     0.530300000000     0          
T        Si     0.036033333333     0.555600000000     0.363900000000     0          
O        O      0.086066666667     0.419000000000     0.250000000000     0          
O        O      0.080500000000     0.373600000000     0.316300000000     0          
O        O      0.102333333333     0.444300000000     0.333600000000     0          
O        O      0.032166666667     0.397666666667     0.310700000000     0          
O        O      0.111566666667     0.640866666667     0.083200000000     0          
O        O      0.071066666667     0.595633333333     0.017200000000     0          
O        O      0.143766666667     0.620866666667     0.020500000000     0          
O        O      0.158066666667     0.412366666667     0.855400000000     0          
O        O      0.181933333333     0.363866666667     0.849900000000     0          
T        Si     0.075233333333     0.408633333333     0.302600000000     0          
T        Si     0.111300000000     0.631000000000     0.030300000000     0          
T        Si     0.147100000000     0.369366666667     0.863900000000     0          
O        O      0.000400000000     0.419400000000     0.750000000000     0          
O        O      0.040233333333     0.413833333333     0.816300000000     0          
O        O      0.324700000000     0.435666666667     0.833600000000     0          
O        O      0.301166666667     0.365500000000     0.810700000000     0          
O        O      0.137366666667     0.444900000000     0.583200000000     0          
O        O      0.142100000000     0.404400000000     0.517200000000     0          
O        O      0.189566666667     0.477100000000     0.520500000000     0          
O        O      0.079033333333     0.491400000000     0.355400000000     0          
O        O      0.151400000000     0.515266666667     0.349900000000     0          
T        Si     0.333266666667     0.408566666667     0.802600000000     0          
T        Si     0.146966666667     0.444633333333     0.530300000000     0          
T        Si     0.111066666667     0.480433333333     0.363900000000     0          
O        O      0.247666666667     0.333733333333     0.250000000000     0          
O        O      0.293066666667     0.373566666667     0.316300000000     0          
O        O      0.222366666667     0.658033333333     0.333600000000     0          
O        O      0.269000000000     0.634500000000     0.310700000000     0          
O        O      0.025800000000     0.470700000000     0.083200000000     0          
O        O      0.071033333333     0.475433333333     0.017200000000     0          
O        O      0.045800000000     0.522900000000     0.020500000000     0          
O        O      0.254300000000     0.412366666667     0.855400000000     0          
O        O      0.302800000000     0.484733333333     0.849900000000     0          
T        Si     0.258033333333     0.666600000000     0.302600000000     0          
T        Si     0.035666666667     0.480300000000     0.030300000000     0          
T        Si     0.297300000000     0.444400000000     0.863900000000     0          
O        O      0.247266666667     0.581000000000     0.750000000000     0          
O        O      0.252833333333     0.626400000000     0.816300000000     0          
O        O      0.231000000000     0.555700000000     0.833600000000     0          
O        O      0.301166666667     0.602333333333     0.810700000000     0          
O        O      0.221766666667     0.359133333333     0.583200000000     0          
O        O      0.262266666667     0.404366666667     0.517200000000     0          
O        O      0.189566666667     0.379133333333     0.520500000000     0          
O        O      0.175266666667     0.587633333333     0.355400000000     0          
O        O      0.151400000000     0.636133333333     0.349900000000     0          
T        Si     0.258100000000     0.591366666667     0.802600000000     0          
T        Si     0.222033333333     0.369000000000     0.530300000000     0          
T        Si     0.186233333333     0.630633333333     0.363900000000     0          
O        O      0.231000000000     0.341966666667     0.833600000000     0          
O        O      0.221766666667     0.529300000000     0.583200000000     0          
O        O      0.214700000000     0.548033333333     0.500000000000     0          
T        Si     0.258100000000     0.333400000000     0.802600000000     0          
T        Si     0.222033333333     0.519700000000     0.530300000000     0          
T        Si     0.186233333333     0.555600000000     0.363900000000     0          
O        O      0.222366666667     0.564333333333     0.333600000000     0          
O        O      0.025800000000     0.555100000000     0.083200000000     0          
O        O      0.000000000000     0.548033333333     0.000000000000     0          
T        Si     0.258033333333     0.591433333333     0.302600000000     0          
T        Si     0.035666666667     0.555366666667     0.030300000000     0          
T        Si     0.297300000000     0.519566666667     0.863900000000     0          
O        O      0.324700000000     0.555700000000     0.833600000000     0          
O        O      0.137366666667     0.359133333333     0.583200000000     0          
O        O      0.118633333333     0.333333333333     0.500000000000     0          
T        Si     0.333266666667     0.591366666667     0.802600000000     0          
T        Si     0.146966666667     0.369000000000     0.530300000000     0          
T        Si     0.111066666667     0.630633333333     0.363900000000     0          
O        O      0.102333333333     0.658033333333     0.333600000000     0          
O        O      0.111566666667     0.470700000000     0.083200000000     0          
O        O      0.118633333333     0.451966666667     0.000000000000     0          
T        Si     0.075233333333     0.666600000000     0.302600000000     0          
T        Si     0.111300000000     0.480300000000     0.030300000000     0          
T        Si     0.147100000000     0.444400000000     0.863900000000     0          
O        O      0.110966666667     0.435666666667     0.833600000000     0          
O        O      0.307533333333     0.444900000000     0.583200000000     0          
O        O      0.000000000000     0.451966666667     0.500000000000     0          
T        Si     0.075300000000     0.408566666667     0.802600000000     0          
T        Si     0.297666666667     0.444633333333     0.530300000000     0          
T        Si     0.036033333333     0.480433333333     0.363900000000     0          
O        O      0.008633333333     0.444300000000     0.333600000000     0          
O        O      0.195966666667     0.640866666667     0.083200000000     0          
O        O      0.214700000000     0.333333333333     0.000000000000     0          
T        Si     0.000066666667     0.408633333333     0.302600000000     0          
T        Si     0.186366666667     0.631000000000     0.030300000000     0          
T        Si     0.222266666667     0.369366666667     0.863900000000     0          
O        O      0.324700000000     0.435666666667     0.666400000000     0          
O        O      0.137366666667     0.444900000000     0.916800000000     0          
T        Si     0.333266666667     0.408566666667     0.697400000000     0          
T        Si     0.146966666667     0.444633333333     0.969700000000     0          
T        Si     0.111066666667     0.480433333333     0.136100000000     0          
O        O      0.222366666667     0.658033333333     0.166400000000     0          
O        O      0.025800000000     0.470700000000     0.416800000000     0          
T        Si     0.258033333333     0.666600000000     0.197400000000     0          
T        Si     0.035666666667     0.480300000000     0.469700000000     0          
T        Si     0.297300000000     0.444400000000     0.636100000000     0          
O        O      0.231000000000     0.555700000000     0.666400000000     0          
O        O      0.221766666667     0.359133333333     0.916800000000     0          
T        Si     0.258100000000     0.591366666667     0.697400000000     0          
T        Si     0.222033333333     0.369000000000     0.969700000000     0          
T        Si     0.186233333333     0.630633333333     0.136100000000     0          
O        O      0.008633333333     0.564333333333     0.166400000000     0          
O        O      0.195966666667     0.555100000000     0.416800000000     0          
T        Si     0.000066666667     0.591433333333     0.197400000000     0          
T        Si     0.186366666667     0.555366666667     0.469700000000     0          
T        Si     0.222266666667     0.519566666667     0.636100000000     0          
O        O      0.110966666667     0.341966666667     0.666400000000     0          
O        O      0.307533333333     0.529300000000     0.916800000000     0          
T        Si     0.075300000000     0.333400000000     0.697400000000     0          
T        Si     0.297666666667     0.519700000000     0.969700000000     0          
T        Si     0.036033333333     0.555600000000     0.136100000000     0          
O        O      0.102333333333     0.444300000000     0.166400000000     0          
O        O      0.111566666667     0.640866666667     0.416800000000     0          
T        Si     0.075233333333     0.408633333333     0.197400000000     0          
T        Si     0.111300000000     0.631000000000     0.469700000000     0          
T        Si     0.147100000000     0.369366666667     0.636100000000     0          
O        O      0.086066666667     0.667066666667     0.250000000000     0          
O        O      0.080500000000     0.706900000000     0.183700000000     0          
O        O      0.102333333333     0.991366666667     0.166400000000     0          
O        O      0.032166666667     0.967833333333     0.189300000000     0          
O        O      0.111566666667     0.804033333333     0.416800000000     0          
O        O      0.071066666667     0.808766666667     0.482800000000     0          
O        O      0.118633333333     0.785300000000     0.500000000000     0          
O        O      0.143766666667     0.856233333333     0.479500000000     0          
O        O      0.158066666667     0.745700000000     0.644600000000     0          
O        O      0.181933333333     0.818066666667     0.650100000000     0          
T        Si     0.075233333333     0.999933333333     0.197400000000     0          
T        Si     0.111300000000     0.813633333333     0.469700000000     0          
T        Si     0.147100000000     0.777733333333     0.636100000000     0          
O        O      0.085666666667     0.752733333333     0.750000000000     0          
O        O      0.040266666667     0.747166666667     0.683700000000     0          
O        O      0.110966666667     0.769000000000     0.666400000000     0          
O        O      0.064333333333     0.698833333333     0.689300000000     0          
O        O      0.307533333333     0.778233333333     0.916800000000     0          
O        O      0.262300000000     0.737733333333     0.982800000000     0          
O        O      0.000000000000     0.785300000000     0.000000000000     0          
O        O      0.287533333333     0.810433333333     0.979500000000     0          
O        O      0.079033333333     0.824733333333     0.144600000000     0          
O        O      0.030533333333     0.848600000000     0.150100000000     0          
T        Si     0.075300000000     0.741900000000     0.697400000000     0          
T        Si     0.297666666667     0.777966666667     0.969700000000     0          
T        Si     0.036033333333     0.813766666667     0.136100000000     0          
O        O      0.332933333333     0.752333333333     0.250000000000     0          
O        O      0.293100000000     0.706933333333     0.183700000000     0          
O        O      0.008633333333     0.777633333333     0.166400000000     0          
O        O      0.032166666667     0.731000000000     0.189300000000     0          
O        O      0.195966666667     0.974200000000     0.416800000000     0          
O        O      0.191233333333     0.928966666667     0.482800000000     0          
O        O      0.214700000000     0.666666666667     0.500000000000     0          
O        O      0.143766666667     0.954200000000     0.479500000000     0          
O        O      0.254300000000     0.745700000000     0.644600000000     0          
O        O      0.181933333333     0.697200000000     0.650100000000     0          
T        Si     0.000066666667     0.741966666667     0.197400000000     0          
T        Si     0.186366666667     0.964333333333     0.469700000000     0          
T        Si     0.222266666667     0.702700000000     0.636100000000     0          
O        O      0.247266666667     0.999600000000     0.750000000000     0          
O        O      0.252833333333     0.959766666667     0.683700000000     0          
O        O      0.231000000000     0.675300000000     0.666400000000     0          
O        O      0.301166666667     0.698833333333     0.689300000000     0          
O        O      0.221766666667     0.862633333333     0.916800000000     0          
O        O      0.262266666667     0.857900000000     0.982800000000     0          
O        O      0.214700000000     0.881366666667     0.000000000000     0          
O        O      0.189566666667     0.810433333333     0.979500000000     0          
O        O      0.175266666667     0.920966666667     0.144600000000     0          
O        O      0.151400000000     0.848600000000     0.150100000000     0          
T        Si     0.258100000000     0.666733333333     0.697400000000     0          
T        Si     0.222033333333     0.853033333333     0.969700000000     0          
T        Si     0.186233333333     0.888933333333     0.136100000000     0          
O        O      0.247666666667     0.913933333333     0.250000000000     0          
O        O      0.293066666667     0.919500000000     0.183700000000     0          
O        O      0.222366666667     0.897666666667     0.166400000000     0          
O        O      0.269000000000     0.967833333333     0.189300000000     0          
O        O      0.025800000000     0.888433333333     0.416800000000     0          
O        O      0.071033333333     0.928933333333     0.482800000000     0          
O        O      0.000000000000     0.881366666667     0.500000000000     0          
O        O      0.045800000000     0.856233333333     0.479500000000     0          
O        O      0.254300000000     0.841933333333     0.644600000000     0          
O        O      0.302800000000     0.818066666667     0.650100000000     0          
T        Si     0.258033333333     0.924766666667     0.197400000000     0          
T        Si     0.035666666667     0.888700000000     0.469700000000     0          
T        Si     0.297300000000     0.852900000000     0.636100000000     0          
O        O      0.000400000000     0.914333333333     0.750000000000     0          
O        O      0.040233333333     0.959733333333     0.683700000000     0          
O        O      0.324700000000     0.889033333333     0.666400000000     0          
O        O      0.301166666667     0.935666666667     0.689300000000     0          
O        O      0.137366666667     0.692466666667     0.916800000000     0          
O        O      0.142100000000     0.737700000000     0.982800000000     0          
O        O      0.118633333333     0.666666666667     0.000000000000     0          
O        O      0.189566666667     0.712466666667     0.979500000000     0          
O        O      0.079033333333     0.920966666667     0.144600000000     0          
O        O      0.151400000000     0.969466666667     0.150100000000     0          
T        Si     0.333266666667     0.924700000000     0.697400000000     0          
T        Si     0.146966666667     0.702333333333     0.969700000000     0          
T        Si     0.111066666667     0.963966666667     0.136100000000     0          
O        O      0.332933333333     0.913933333333     0.250000000000     0          
O        O      0.293100000000     0.919500000000     0.316300000000     0          
O        O      0.008633333333     0.897666666667     0.333600000000     0          
O        O      0.032166666667     0.967833333333     0.310700000000     0          
O        O      0.195966666667     0.888433333333     0.083200000000     0          
O        O      0.191233333333     0.928933333333     0.017200000000     0          
O        O      0.143766666667     0.856233333333     0.020500000000     0          
O        O      0.254300000000     0.841933333333     0.855400000000     0          
O        O      0.181933333333     0.818066666667     0.849900000000     0          
T        Si     0.000066666667     0.924766666667     0.302600000000     0          
T        Si     0.186366666667     0.888700000000     0.030300000000     0          
T        Si     0.222266666667     0.852900000000     0.863900000000     0          
O        O      0.085666666667     0.999600000000     0.750000000000     0          
O        O      0.040266666667     0.959766666667     0.816300000000     0          
O        O      0.110966666667     0.675300000000     0.833600000000     0          
O        O      0.064333333333     0.698833333333     0.810700000000     0          
O        O      0.307533333333     0.862633333333     0.583200000000     0          
O        O      0.262300000000     0.857900000000     0.517200000000     0          
O        O      0.287533333333     0.810433333333     0.520500000000     0          
O        O      0.079033333333     0.920966666667     0.355400000000     0          
O        O      0.030533333333     0.848600000000     0.349900000000     0          
T        Si     0.075300000000     0.666733333333     0.802600000000     0          
T        Si     0.297666666667     0.853033333333     0.530300000000     0          
T        Si     0.036033333333     0.888933333333     0.363900000000     0          
O        O      0.086066666667     0.752333333333     0.250000000000     0          
O        O      0.080500000000     0.706933333333     0.316300000000     0          
O        O      0.102333333333     0.777633333333     0.333600000000     0          
O        O      0.032166666667     0.731000000000     0.310700000000     0          
O        O      0.111566666667     0.974200000000     0.083200000000     0          
O        O      0.071066666667     0.928966666667     0.017200000000     0          
O        O      0.143766666667     0.954200000000     0.020500000000     0          
O        O      0.158066666667     0.745700000000     0.855400000000     0          
O        O      0.181933333333     0.697200000000     0.849900000000     0          
T        Si     0.075233333333     0.741966666667     0.302600000000     0          
T        Si     0.111300000000     0.964333333333     0.030300000000     0          
T        Si     0.147100000000     0.702700000000     0.863900000000     0          
O        O      0.000400000000     0.752733333333     0.750000000000     0          
O        O      0.040233333333     0.747166666667     0.816300000000     0          
O        O      0.324700000000     0.769000000000     0.833600000000     0          
O        O      0.301166666667     0.698833333333     0.810700000000     0          
O        O      0.137366666667     0.778233333333     0.583200000000     0          
O        O      0.142100000000     0.737733333333     0.517200000000     0          
O        O      0.189566666667     0.810433333333     0.520500000000     0          
O        O      0.079033333333     0.824733333333     0.355400000000     0          
O        O      0.151400000000     0.848600000000     0.349900000000     0          
T        Si     0.333266666667     0.741900000000     0.802600000000     0          
T        Si     0.146966666667     0.777966666667     0.530300000000     0          
T        Si     0.111066666667     0.813766666667     0.363900000000     0          
O        O      0.247666666667     0.667066666667     0.250000000000     0          
O        O      0.293066666667     0.706900000000     0.316300000000     0          
O        O      0.222366666667     0.991366666667     0.333600000000     0          
O        O      0.269000000000     0.967833333333     0.310700000000     0          
O        O      0.025800000000     0.804033333333     0.083200000000     0          
O        O      0.071033333333     0.808766666667     0.017200000000     0          
O        O      0.045800000000     0.856233333333     0.020500000000     0          
O        O      0.254300000000     0.745700000000     0.855400000000     0          
O        O      0.302800000000     0.818066666667     0.849900000000     0          
T        Si     0.258033333333     0.999933333333     0.302600000000     0          
T        Si     0.035666666667     0.813633333333     0.030300000000     0          
T        Si     0.297300000000     0.777733333333     0.863900000000     0          
O        O      0.247266666667     0.914333333333     0.750000000000     0          
O        O      0.252833333333     0.959733333333     0.816300000000     0          
O        O      0.231000000000     0.889033333333     0.833600000000     0          
O        O      0.301166666667     0.935666666667     0.810700000000     0          
O        O      0.221766666667     0.692466666667     0.583200000000     0          
O        O      0.262266666667     0.737700000000     0.517200000000     0          
O        O      0.189566666667     0.712466666667     0.520500000000     0          
O        O      0.175266666667     0.920966666667     0.355400000000     0          
O        O      0.151400000000     0.969466666667     0.349900000000     0          
T        Si     0.258100000000     0.924700000000     0.802600000000     0          
T        Si     0.222033333333     0.702333333333     0.530300000000     0          
T        Si     0.186233333333     0.963966666667     0.363900000000     0          
O        O      0.231000000000     0.675300000000     0.833600000000     0          
O        O      0.221766666667     0.862633333333     0.583200000000     0          
O        O      0.214700000000     0.881366666667     0.500000000000     0          
T        Si     0.258100000000     0.666733333333     0.802600000000     0          
T        Si     0.222033333333     0.853033333333     0.530300000000     0          
T        Si     0.186233333333     0.888933333333     0.363900000000     0          
O        O      0.222366666667     0.897666666667     0.333600000000     0          
O        O      0.025800000000     0.888433333333     0.083200000000     0          
O        O      0.000000000000     0.881366666667     0.000000000000     0          
T        Si     0.258033333333     0.924766666667     0.302600000000     0          
T        Si     0.035666666667     0.888700000000     0.030300000000     0          
T        Si     0.297300000000     0.852900000000     0.863900000000     0          
O        O      0.324700000000     0.889033333333     0.833600000000     0          
O        O      0.137366666667     0.692466666667     0.583200000000     0          
O        O      0.118633333333     0.666666666667     0.500000000000     0          
T        Si     0.333266666667     0.924700000000     0.802600000000     0          
T        Si     0.146966666667     0.702333333333     0.530300000000     0          
T        Si     0.111066666667     0.963966666667     0.363900000000     0          
O        O      0.102333333333     0.991366666667     0.333600000000     0          
O        O      0.111566666667     0.804033333333     0.083200000000     0          
O        O      0.118633333333     0.785300000000     0.000000000000     0          
T        Si     0.075233333333     0.999933333333     0.302600000000     0          
T        Si     0.111300000000     0.813633333333     0.030300000000     0          
T        Si     0.147100000000     0.777733333333     0.863900000000     0          
O        O      0.110966666667     0.769000000000     0.833600000000     0          
O        O      0.307533333333     0.778233333333     0.583200000000     0          
O        O      0.000000000000     0.785300000000     0.500000000000     0          
T        Si     0.075300000000     0.741900000000     0.802600000000     0          
T        Si     0.297666666667     0.777966666667     0.530300000000     0          
T        Si     0.036033333333     0.813766666667     0.363900000000     0          
O        O      0.008633333333     0.777633333333     0.333600000000     0          
O        O      0.195966666667     0.974200000000     0.083200000000     0          
O        O      0.214700000000     0.666666666667     0.000000000000     0          
T        Si     0.000066666667     0.741966666667     0.302600000000     0          
T        Si     0.186366666667     0.964333333333     0.030300000000     0          
T        Si     0.222266666667     0.702700000000     0.863900000000     0          
O        O      0.324700000000     0.769000000000     0.666400000000     0          
O        O      0.137366666667     0.778233333333     0.916800000000     0          
T        Si     0.333266666667     0.741900000000     0.697400000000     0          
T        Si     0.146966666667     0.777966666667     0.969700000000     0          
T        Si     0.111066666667     0.813766666667     0.136100000000     0          
O        O      0.222366666667     0.991366666667     0.166400000000     0          
O        O      0.025800000000     0.804033333333     0.416800000000     0          
T        Si     0.258033333333     0.999933333333     0.197400000000     0          
T        Si     0.035666666667     0.813633333333     0.469700000000     0          
T        Si     0.297300000000     0.777733333333     0.636100000000     0          
O        O      0.231000000000     0.889033333333     0.666400000000     0          
O        O      0.221766666667     0.692466666667     0.916800000000     0          
T        Si     0.258100000000     0.924700000000     0.697400000000     0          
T        Si     0.222033333333     0.702333333333     0.969700000000     0          
T        Si     0.186233333333     0.963966666667     0.136100000000     0          
O        O      0.008633333333     0.897666666667     0.166400000000     0          
O        O      0.195966666667     0.888433333333     0.416800000000     0          
T        Si     0.000066666667     0.924766666667     0.197400000000     0          
T        Si     0.186366666667     0.888700000000     0.469700000000     0          
T        Si     0.222266666667     0.852900000000     0.636100000000     0          
O        O      0.110966666667     0.675300000000     0.666400000000     0          
O        O      0.307533333333     0.862633333333     0.916800000000     0          
T        Si     0.075300000000     0.666733333333     0.697400000000     0          
T        Si     0.297666666667     0.853033333333     0.969700000000     0          
T        Si     0.036033333333     0.888933333333     0.136100000000     0          
O        O      0.102333333333     0.777633333333     0.166400000000     0          
O        O      0.111566666667     0.974200000000     0.416800000000     0          
T        Si     0.075233333333     0.741966666667     0.197400000000     0          
T        Si     0.111300000000     0.964333333333     0.469700000000     0          
T        Si     0.147100000000     0.702700000000     0.636100000000     0          
O        O      0.419400000000     0.000400000000     0.250000000000     0          
O        O      0.413833333333     0.040233333333     0.183700000000     0          
O        O      0.435666666667     0.324700000000     0.166400000000     0          
O        O      0.365500000000     0.301166666667     0.189300000000     0          
O        O      0.444900000000     0.137366666667     0.416800000000     0          
O        O      0.404400000000     0.142100000000     0.482800000000     0          
O        O      0.451966666667     0.118633333333     0.500000000000     0          
O        O      0.477100000000     0.189566666667     0.479500000000     0          
O        O      0.491400000000     0.079033333333     0.644600000000     0          
O        O      0.515266666667     0.151400000000     0.650100000000     0          
T        Si     0.408566666667     0.333266666667     0.197400000000     0          
T        Si     0.444633333333     0.146966666667     0.469700000000     0          
T        Si     0.480433333333     0.111066666667     0.636100000000     0          
O        O      0.419000000000     0.086066666667     0.750000000000     0          
O        O      0.373600000000     0.080500000000     0.683700000000     0          
O        O      0.444300000000     0.102333333333     0.666400000000     0          
O        O      0.397666666667     0.032166666667     0.689300000000     0          
O        O      0.640866666667     0.111566666667     0.916800000000     0          
O        O      0.595633333333     0.071066666667     0.982800000000     0          
O        O      0.333333333333     0.118633333333     0.000000000000     0          
O        O      0.620866666667     0.143766666667     0.979500000000     0          
O        O      0.412366666667     0.158066666667     0.144600000000     0          
O        O      0.363866666667     0.181933333333     0.150100000000     0          
T        Si     0.408633333333     0.075233333333     0.697400000000     0          
T        Si     0.631000000000     0.111300000000     0.969700000000     0          
T        Si     0.369366666667     0.147100000000     0.136100000000     0          
O        O      0.666266666667     0.085666666667     0.250000000000     0          
O        O      0.626433333333     0.040266666667     0.183700000000     0          
O        O      0.341966666667     0.110966666667     0.166400000000     0          
O        O      0.365500000000     0.064333333333     0.189300000000     0          
O        O      0.529300000000     0.307533333333     0.416800000000     0          
O        O      0.524566666667     0.262300000000     0.482800000000     0          
O        O      0.548033333333     0.000000000000     0.500000000000     0          
O        O      0.477100000000     0.287533333333     0.479500000000     0          
O        O      0.587633333333     0.079033333333     0.644600000000     0          
O        O      0.515266666667     0.030533333333     0.650100000000     0          
T        Si     0.333400000000     0.075300000000     0.197400000000     0          
T        Si     0.519700000000     0.297666666667     0.469700000000     0          
T        Si     0.555600000000     0.036033333333     0.636100000000     0          
O        O      0.580600000000     0.332933333333     0.750000000000     0          
O        O      0.586166666667     0.293100000000     0.683700000000     0          
O        O      0.564333333333     0.008633333333     0.666400000000     0          
O        O      0.634500000000     0.032166666667     0.689300000000     0          
O        O      0.555100000000     0.195966666667     0.916800000000     0          
O        O      0.595600000000     0.191233333333     0.982800000000     0          
O        O      0.548033333333     0.214700000000     0.000000000000     0          
O        O      0.522900000000     0.143766666667     0.979500000000     0          
O        O      0.508600000000     0.254300000000     0.144600000000     0          
O        O      0.484733333333     0.181933333333     0.150100000000     0          
T        Si     0.591433333333     0.000066666667     0.697400000000     0          
T        Si     0.555366666667     0.186366666667     0.969700000000     0          
T        Si     0.519566666667     0.222266666667     0.136100000000     0          
O        O      0.581000000000     0.247266666667     0.250000000000     0          
O        O      0.626400000000     0.252833333333     0.183700000000     0          
O        O      0.555700000000     0.231000000000     0.166400000000     0          
O        O      0.602333333333     0.301166666667     0.189300000000     0          
O        O      0.359133333333     0.221766666667     0.416800000000     0          
O        O      0.404366666667     0.262266666667     0.482800000000     0          
O        O      0.333333333333     0.214700000000     0.500000000000     0          
O        O      0.379133333333     0.189566666667     0.479500000000     0          
O        O      0.587633333333     0.175266666667     0.644600000000     0          
O        O      0.636133333333     0.151400000000     0.650100000000     0          
T        Si     0.591366666667     0.258100000000     0.197400000000     0          
T        Si     0.369000000000     0.222033333333     0.469700000000     0          
T        Si     0.630633333333     0.186233333333     0.636100000000     0          
O        O      0.333733333333     0.247666666667     0.750000000000     0          
O        O      0.373566666667     0.293066666667     0.683700000000     0          
O        O      0.658033333333     0.222366666667     0.666400000000     0          
O        O      0.634500000000     0.269000000000     0.689300000000     0          
O        O      0.470700000000     0.025800000000     0.916800000000     0          
O        O      0.475433333333     0.071033333333     0.982800000000     0          
O        O      0.451966666667     0.000000000000     0.000000000000     0          
O        O      0.522900000000     0.045800000000     0.979500000000     0          
O        O      0.412366666667     0.254300000000     0.144600000000     0          
O        O      0.484733333333     0.302800000000     0.150100000000     0          
T        Si     0.666600000000     0.258033333333     0.697400000000     0          
T        Si     0.480300000000     0.035666666667     0.969700000000     0          
T        Si     0.444400000000     0.297300000000     0.136100000000     0          
O        O      0.666266666667     0.247266666667     0.250000000000     0          
O        O      0.626433333333     0.252833333333     0.316300000000     0          
O        O      0.341966666667     0.231000000000     0.333600000000     0          
O        O      0.365500000000     0.301166666667     0.310700000000     0          
O        O      0.529300000000     0.221766666667     0.083200000000     0          
O        O      0.524566666667     0.262266666667     0.017200000000     0          
O        O      0.477100000000     0.189566666667     0.020500000000     0          
O        O      0.587633333333     0.175266666667     0.855400000000     0          
O        O      0.515266666667     0.151400000000     0.849900000000     0          
T        Si     0.333400000000     0.258100000000     0.302600000000     0          
T        Si     0.519700000000     0.222033333333     0.030300000000     0          
T        Si     0.555600000000     0.186233333333     0.863900000000     0          
O        O      0.419000000000     0.332933333333     0.750000000000     0          
O        O      0.373600000000     0.293100000000     0.816300000000     0          
O        O      0.444300000000     0.008633333333     0.833600000000     0          
O        O      0.397666666667     0.032166666667     0.810700000000     0          
O        O      0.640866666667     0.195966666667     0.583200000000     0          
O        O      0.595633333333     0.191233333333     0.517200000000     0          
O        O      0.620866666667     0.143766666667     0.520500000000     0          
O        O      0.412366666667     0.254300000000     0.355400000000     0          
O        O      0.363866666667     0.181933333333     0.349900000000     0          
T        Si     0.408633333333     0.000066666667     0.802600000000     0          
T        Si     0.631000000000     0.186366666667     0.530300000000     0          
T        Si     0.369366666667     0.222266666667     0.363900000000     0          
O        O      0.419400000000     0.085666666667     0.250000000000     0          
O        O      0.413833333333     0.040266666667     0.316300000000     0          
O        O      0.435666666667     0.110966666667     0.333600000000     0          
O        O      0.365500000000     0.064333333333     0.310700000000     0          
O        O      0.444900000000     0.307533333333     0.083200000000     0          
O        O      0.404400000000     0.262300000000     0.017200000000     0          
O        O      0.477100000000     0.287533333333     0.020500000000     0          
O        O      0.491400000000     0.079033333333     0.855400000000     0          
O        O      0.515266666667     0.030533333333     0.849900000000     0          
T        Si     0.408566666667     0.075300000000     0.302600000000     0          
T        Si     0.444633333333     0.297666666667     0.030300000000     0          
T        Si     0.480433333333     0.036033333333     0.863900000000     0          
O        O      0.333733333333     0.086066666667     0.750000000000     0          
O        O      0.373566666667     0.080500000000     0.816300000000     0          
O        O      0.658033333333     0.102333333333     0.833600000000     0          
O        O      0.634500000000     0.032166666667     0.810700000000     0          
O        O      0.470700000000     0.111566666667     0.583200000000     0          
O        O      0.475433333333     0.071066666667     0.517200000000     0          
O        O      0.522900000000     0.143766666667     0.520500000000     0          
O        O      0.412366666667     0.158066666667     0.355400000000     0          
O        O      0.484733333333     0.181933333333     0.349900000000     0          
T        Si     0.666600000000     0.075233333333     0.802600000000     0          
T        Si     0.480300000000     0.111300000000     0.530300000000     0          
T        Si     0.444400000000     0.147100000000     0.363900000000     0          
O        O      0.581000000000     0.000400000000     0.250000000000     0          
O        O      0.626400000000     0.040233333333     0.316300000000     0          
O        O      0.555700000000     0.324700000000     0.333600000000     0          
O        O      0.602333333333     0.301166666667     0.310700000000     0          
O        O      0.359133333333     0.137366666667     0.083200000000     0          
O        O      0.404366666667     0.142100000000     0.017200000000     0          
O        O      0.379133333333     0.189566666667     0.020500000000     0          
O        O      0.587633333333     0.079033333333     0.855400000000     0          
O        O      0.636133333333     0.151400000000     0.849900000000     0          
T        Si     0.591366666667     0.333266666667     0.302600000000     0          
T        Si     0.369000000000     0.146966666667     0.030300000000     0          
T        Si     0.630633333333     0.111066666667     0.863900000000     0          
O        O      0.580600000000     0.247666666667     0.750000000000     0          
O        O      0.586166666667     0.293066666667     0.816300000000     0          
O        O      0.564333333333     0.222366666667     0.833600000000     0          
O        O      0.634500000000     0.269000000000     0.810700000000     0          
O        O      0.555100000000     0.025800000000     0.583200000000     0          
O        O      0.595600000000     0.071033333333     0.517200000000     0          
O        O      0.522900000000     0.045800000000     0.520500000000     0          
O        O      0.508600000000     0.254300000000     0.355400000000     0          
O        O      0.484733333333     0.302800000000     0.349900000000     0          
T        Si     0.591433333333     0.258033333333     0.802600000000     0          
T        Si     0.555366666667     0.035666666667     0.530300000000     0          
T        Si     0.519566666667     0.297300000000     0.363900000000     0          
O        O      0.564333333333     0.008633333333     0.833600000000     0          
O        O      0.555100000000     0.195966666667     0.583200000000     0          
O        O      0.548033333333     0.214700000000     0.500000000000     0          
T        Si     0.591433333333     0.000066666667     0.802600000000     0          
T        Si     0.555366666667     0.186366666667     0.530300000000     0          
T        Si     0.519566666667     0.222266666667     0.363900000000     0          
O        O      0.555700000000     0.231000000000     0.333600000000     0          
O        O      0.359133333333     0.221766666667     0.083200000000     0          
O        O      0.333333333333     0.214700000000     0.000000000000     0          
T        Si     0.591366666667     0.258100000000     0.302600000000     0          
T        Si     0.369000000000     0.222033333333     0.030300000000     0          
T        Si     0.630633333333     0.186233333333     0.863900000000     0          
O        O      0.658033333333     0.222366666667     0.833600000000     0          
O        O      0.470700000000     0.025800000000     0.583200000000     0          
O        O      0.451966666667     0.000000000000     0.500000000000     0          
T        Si     0.666600000000     0.258033333333     0.802600000000     0          
T        Si     0.480300000000     0.035666666667     0.530300000000     0          
T        Si     0.444400000000     0.297300000000     0.363900000000     0          
O        O      0.435666666667     0.324700000000     0.333600000000     0          
O        O      0.444900000000     0.137366666667     0.083200000000     0          
O        O      0.451966666667     0.118633333333     0.000000000000     0          
T        Si     0.408566666667     0.333266666667     0.302600000000     0          
T        Si     0.444633333333     0.146966666667     0.030300000000     0          
T        Si     0.480433333333     0.111066666667     0.863900000000     0          
O        O      0.444300000000     0.102333333333     0.833600000000     0          
O        O      0.640866666667     0.111566666667     0.583200000000     0          
O        O      0.333333333333     0.118633333333     0.500000000000     0          
T        Si     0.408633333333     0.075233333333     0.802600000000     0          
T        Si     0.631000000000     0.111300000000     0.530300000000     0          
T        Si     0.369366666667     0.147100000000     0.363900000000     0          
O        O      0.341966666667     0.110966666667     0.333600000000     0          
O        O      0.529300000000     0.307533333333     0.083200000000     0          
O        O      0.548033333333     0.000000000000     0.000000000000     0          
T        Si     0.333400000000     0.075300000000     0.302600000000     0          
T        Si     0.519700000000     0.297666666667     0.030300000000     0          
T        Si     0.555600000000     0.036033333333     0.863900000000     0          
O        O      0.658033333333     0.102333333333     0.666400000000     0          
O        O      0.470700000000     0.111566666667     0.916800000000     0          
T        Si     0.666600000000     0.075233333333     0.697400000000     0          
T        Si     0.480300000000     0.111300000000     0.969700000000     0          
T        Si     0.444400000000     0.147100000000     0.136100000000     0          
O        O      0.555700000000     0.324700000000     0.166400000000     0          
O        O      0.359133333333     0.137366666667     0.416800000000     0          
T        Si     0.591366666667     0.333266666667     0.197400000000     0          
T        Si     0.369000000000     0.146966666667     0.469700000000     0          
T        Si     0.630633333333     0.111066666667     0.636100000000     0          
O        O      0.564333333333     0.222366666667     0.666400000000     0          
O        O      0.555100000000     0.025800000000     0.916800000000     0          
T        Si     0.591433333333     0.258033333333     0.697400000000     0          
T        Si     0.555366666667     0.035666666667     0.969700000000     0          
T        Si     0.519566666667     0.297300000000     0.136100000000     0          
O        O      0.341966666667     0.231000000000     0.166400000000     0          
O        O      0.529300000000     0.221766666667     0.416800000000     0          
T        Si     0.333400000000     0.258100000000     0.197400000000     0          
T        Si     0.519700000000     0.222033333333     0.469700000000     0          
T        Si     0.555600000000     0.186233333333     0.636100000000     0          
O        O      0.444300000000     0.008633333333     0.666400000000     0          
O        O      0.640866666667     0.195966666667     0.916800000000     0          
T        Si     0.408633333333     0.000066666667     0.697400000000     0          
T        Si     0.631000000000     0.186366666667     0.969700000000     0          
T        Si     0.369366666667     0.222266666667     0.136100000000     0          
O        O      0.435666666667     0.110966666667     0.166400000000     0          
O        O      0.444900000000     0.307533333333     0.416800000000     0          
T        Si     0.408566666667     0.075300000000     0.197400000000     0          
T        Si     0.444633333333     0.297666666667     0.469700000000     0          
T        Si     0.480433333333     0.036033333333     0.636100000000     0          
O        O      0.419400000000     0.333733333333     0.250000000000     0          
O        O      0.413833333333     0.373566666667     0.183700000000     0          
O        O      0.435666666667     0.658033333333     0.166400000000     0          
O        O      0.365500000000     0.634500000000     0.189300000000     0          
O        O      0.444900000000     0.470700000000     0.416800000000     0          
O        O      0.404400000000     0.475433333333     0.482800000000     0          
O        O      0.451966666667     0.451966666667     0.500000000000     0          
O        O      0.477100000000     0.522900000000     0.479500000000     0          
O        O      0.491400000000     0.412366666667     0.644600000000     0          
O        O      0.515266666667     0.484733333333     0.650100000000     0          
T        Si     0.408566666667     0.666600000000     0.197400000000     0          
T        Si     0.444633333333     0.480300000000     0.469700000000     0          
T        Si     0.480433333333     0.444400000000     0.636100000000     0          
O        O      0.419000000000     0.419400000000     0.750000000000     0          
O        O      0.373600000000     0.413833333333     0.683700000000     0          
O        O      0.444300000000     0.435666666667     0.666400000000     0          
O        O      0.397666666667     0.365500000000     0.689300000000     0          
O        O      0.640866666667     0.444900000000     0.916800000000     0          
O        O      0.595633333333     0.404400000000     0.982800000000     0          
O        O      0.333333333333     0.451966666667     0.000000000000     0          
O        O      0.620866666667     0.477100000000     0.979500000000     0          
O        O      0.412366666667     0.491400000000     0.144600000000     0          
O        O      0.363866666667     0.515266666667     0.150100000000     0          
T        Si     0.408633333333     0.408566666667     0.697400000000     0          
T        Si     0.631000000000     0.444633333333     0.969700000000     0          
T        Si     0.369366666667     0.480433333333     0.136100000000     0          
O        O      0.666266666667     0.419000000000     0.250000000000     0          
O        O      0.626433333333     0.373600000000     0.183700000000     0          
O        O      0.341966666667     0.444300000000     0.166400000000     0          
O        O      0.365500000000     0.397666666667     0.189300000000     0          
O        O      0.529300000000     0.640866666667     0.416800000000     0          
O        O      0.524566666667     0.595633333333     0.482800000000     0          
O        O      0.548033333333     0.333333333333     0.500000000000     0          
O        O      0.477100000000     0.620866666667     0.479500000000     0          
O        O      0.587633333333     0.412366666667     0.644600000000     0          
O        O      0.515266666667     0.363866666667     0.650100000000     0          
T        Si     0.333400000000     0.408633333333     0.197400000000     0          
T        Si     0.519700000000     0.631000000000     0.469700000000     0          
T        Si     0.555600000000     0.369366666667     0.636100000000     0          
O        O      0.580600000000     0.666266666667     0.750000000000     0          
O        O      0.586166666667     0.626433333333     0.683700000000     0          
O        O      0.564333333333     0.341966666667     0.666400000000     0          
O        O      0.634500000000     0.365500000000     0.689300000000     0          
O        O      0.555100000000     0.529300000000     0.916800000000     0          
O        O      0.595600000000     0.524566666667     0.982800000000     0          
O        O      0.548033333333     0.548033333333     0.000000000000     0          
O        O      0.522900000000     0.477100000000     0.979500000000     0          
O        O      0.508600000000     0.587633333333     0.144600000000     0          
O        O      0.484733333333     0.515266666667     0.150100000000     0          
T        Si     0.591433333333     0.333400000000     0.697400000000     0          
T        Si     0.555366666667     0.519700000000     0.969700000000     0          
T        Si     0.519566666667     0.555600000000     0.136100000000     0          
O        O      0.581000000000     0.580600000000     0.250000000000     0          
O        O      0.626400000000     0.586166666667     0.183700000000     0          
O        O      0.555700000000     0.564333333333     0.166400000000     0          
O        O      0.602333333333     0.634500000000     0.189300000000     0          
O        O      0.359133333333     0.555100000000     0.416800000000     0          
O        O      0.404366666667     0.595600000000     0.482800000000     0          
O        O      0.333333333333     0.548033333333     0.500000000000     0          
O        O      0.379133333333     0.522900000000     0.479500000000     0          
O        O      0.587633333333     0.508600000000     0.644600000000     0          
O        O      0.636133333333     0.484733333333     0.650100000000     0          
T        Si     0.591366666667     0.591433333333     0.197400000000     0          
T        Si     0.369000000000     0.555366666667     0.469700000000     0          
T        Si     0.630633333333     0.519566666667     0.636100000000     0          
O        O      0.333733333333     0.581000000000     0.750000000000     0          
O        O      0.373566666667     0.626400000000     0.683700000000     0          
O        O      0.658033333333     0.555700000000     0.666400000000     0          
O        O      0.634500000000     0.602333333333     0.689300000000     0          
O        O      0.470700000000     0.359133333333     0.916800000000     0          
O        O      0.475433333333     0.404366666667     0.982800000000     0          
O        O      0.451966666667     0.333333333333     0.000000000000     0          
O        O      0.522900000000     0.379133333333     0.979500000000     0          
O        O      0.412366666667     0.587633333333     0.144600000000     0          
O        O      0.484733333333     0.636133333333     0.150100000000     0          
T        Si     0.666600000000     0.591366666667     0.697400000000     0          
T        Si     0.480300000000     0.369000000000     0.969700000000     0          
T        Si     0.444400000000     0.630633333333     0.136100000000     0          
O        O      0.666266666667     0.580600000000     0.250000000000     0          
O        O      0.626433333333     0.586166666667     0.316300000000     0          
O        O      0.341966666667     0.564333333333     0.333600000000     0          
O        O      0.365500000000     0.634500000000     0.310700000000     0          
O        O      0.529300000000     0.555100000000     0.083200000000     0          
O        O      0.524566666667     0.595600000000     0.017200000000     0          
O        O      0.477100000000     0.522900000000     0.020500000000     0          
O        O      0.587633333333     0.508600000000     0.855400000000     0          
O        O      0.515266666667     0.484733333333     0.849900000000     0          
T        Si     0.333400000000     0.591433333333     0.302600000000     0          
T        Si     0.519700000000     0.555366666667     0.030300000000     0          
T        Si     0.555600000000     0.519566666667     0.863900000000     0          
O        O      0.419000000000     0.666266666667     0.750000000000     0          
O        O      0.373600000000     0.626433333333     0.816300000000     0          
O        O      0.444300000000     0.341966666667     0.833600000000     0          
O        O      0.397666666667     0.365500000000     0.810700000000     0          
O        O      0.640866666667     0.529300000000     0.583200000000     0          
O        O      0.595633333333     0.524566666667     0.517200000000     0          
O        O      0.620866666667     0.477100000000     0.520500000000     0          
O        O      0.412366666667     0.587633333333     0.355400000000     0          
O        O      0.363866666667     0.515266666667     0.349900000000     0          
T        Si     0.408633333333     0.333400000000     0.802600000000     0          
T        Si     0.631000000000     0.519700000000     0.530300000000     0          
T        Si     0.369366666667     0.555600000000     0.363900000000     0          
O        O      0.419400000000     0.419000000000     0.250000000000     0          
O        O      0.413833333333     0.373600000000     0.316300000000     0          
O        O      0.435666666667     0.444300000000     0.333600000000     0          
O        O      0.365500000000     0.397666666667     0.310700000000     0          
O        O      0.444900000000     0.640866666667     0.083200000000     0          
O        O      0.404400000000     0.595633333333     0.017200000000     0          
O        O      0.477100000000     0.620866666667     0.020500000000     0          
O        O      0.491400000000     0.412366666667     0.855400000000     0          
O        O      0.515266666667     0.363866666667     0.849900000000     0          
T        Si     0.408566666667     0.408633333333     0.302600000000     0          
T        Si     0.444633333333     0.631000000000     0.030300000000     0          
T        Si     0.480433333333     0.369366666667     0.863900000000     0          
O        O      0.333733333333     0.419400000000     0.750000000000     0          
O        O      0.373566666667     0.413833333333     0.816300000000     0          
O        O      0.658033333333     0.435666666667     0.833600000000     0          
O        O      0.634500000000     0.365500000000     0.810700000000     0          
O        O      0.470700000000     0.444900000000     0.583200000000     0          
O        O      0.475433333333     0.404400000000     0.517200000000     0          
O        O      0.522900000000     0.477100000000     0.520500000000     0          
O        O      0.412366666667     0.491400000000     0.355400000000     0          
O        O      0.484733333333     0.515266666667     0.349900000000     0          
T        Si     0.666600000000     0.408566666667     0.802600000000     0          
T        Si     0.480300000000     0.444633333333     0.530300000000     0          
T        Si     0.444400000000     0.480433333333     0.363900000000     0          
O        O      0.581000000000     0.333733333333     0.250000000000     0          
O        O      0.626400000000     0.373566666667     0.316300000000     0          
O        O      0.555700000000     0.658033333333     0.333600000000     0          
O        O      0.602333333333     0.634500000000     0.310700000000     0          
O        O      0.359133333333     0.470700000000     0.083200000000     0          
O        O      0.404366666667     0.475433333333     0.017200000000     0          
O        O      0.379133333333     0.522900000000     0.020500000000     0          
O        O      0.587633333333     0.412366666667     0.855400000000     0          
O        O      0.636133333333     0.484733333333     0.849900000000     0          
T        Si     0.591366666667     0.666600000000     0.302600000000     0          
T        Si     0.369000000000     0.480300000000     0.030300000000     0          
T        Si     0.630633333333     0.444400000000     0.863900000000     0          
O        O      0.580600000000     0.581000000000     0.750000000000     0          
O        O      0.586166666667     0.626400000000     0.816300000000     0          
O        O      0.564333333333     0.555700000000     0.833600000000     0          
O        O      0.634500000000     0.602333333333     0.810700000000     0          
O        O      0.555100000000     0.359133333333     0.583200000000     0          
O        O      0.595600000000     0.404366666667     0.517200000000     0          
O        O      0.522900000000     0.379133333333     0.520500000000     0          
O        O      0.508600000000     0.587633333333     0.355400000000     0          
O        O      0.484733333333     0.636133333333     0.349900000000     0          
T        Si     0.591433333333     0.591366666667     0.802600000000     0          
T        Si     0.555366666667     0.369000000000     0.530300000000     0          
T        Si     0.519566666667     0.630633333333     0.363900000000     0          
O        O      0.564333333333     0.341966666667     0.833600000000     0          
O        O      0.555100000000     0.529300000000     0.583200000000     0          
O        O      0.548033333333     0.548033333333     0.500000000000     0          
T        Si     0.591433333333     0.333400000000     0.802600000000     0          
T        Si     0.555366666667     0.519700000000     0.530300000000     0          
T        Si     0.519566666667     0.555600000000     0.363900000000     0          
O        O      0.555700000000     0.564333333333     0.333600000000     0          
O        O      0.359133333333     0.555100000000     0.083200000000     0          
O        O      0.333333333333     0.548033333333     0.000000000000     0          
T        Si     0.591366666667     0.591433333333     0.302600000000     0          
T        Si     0.369000000000     0.555366666667     0.030300000000     0          
T        Si     0.630633333333     0.519566666667     0.863900000000     0          
O        O      0.658033333333     0.555700000000     0.833600000000     0          
O        O      0.470700000000     0.359133333333     0.583200000000     0          
O        O      0.451966666667     0.333333333333     0.500000000000     0          
T        Si     0.666600000000     0.591366666667     0.802600000000     0          
T        Si     0.480300000000     0.369000000000     0.530300000000     0          
T        Si     0.444400000000     0.630633333333     0.363900000000     0          
O        O      0.435666666667     0.658033333333     0.333600000000     0          
O        O      0.444900000000     0.470700000000     0.083200000000     0          
O        O      0.451966666667     0.451966666667     0.000000000000     0          
T        Si     0.408566666667     0.666600000000     0.302600000000     0          
T        Si     0.444633333333     0.480300000000     0.030300000000     0          
T        Si     0.480433333333     0.444400000000     0.863900000000     0          
O        O      0.444300000000     0.435666666667     0.833600000000     0          
O        O      0.640866666667     0.444900000000     0.583200000000     0          
O        O      0.333333333333     0.451966666667     0.500000000000     0          
T        Si     0.408633333333     0.408566666667     0.802600000000     0          
T        Si     0.631000000000     0.444633333333     0.530300000000     0          
T        Si     0.369366666667     0.480433333333     0.363900000000     0          
O        O      0.341966666667     0.444300000000     0.333600000000     0          
O        O      0.529300000000     0.640866666667     0.083200000000     0          
O        O      0.548033333333     0.333333333333     0.000000000000     0          
T        Si     0.333400000000     0.408633333333     0.302600000000     0          
T        Si     0.519700000000     0.631000000000     0.030300000000     0          
T        Si     0.555600000000     0.369366666667     0.863900000000     0          
O        O      0.658033333333     0.435666666667     0.666400000000     0          
O        O      0.470700000000     0.444900000000     0.916800000000     0          
T        Si     0.666600000000     0.408566666667     0.697400000000     0          
T        Si     0.480300000000     0.444633333333     0.969700000000     0          
T        Si     0.444400000000     0.480433333333     0.136100000000     0          
O        O      0.555700000000     0.658033333333     0.166400000000     0          
O        O      0.359133333333     0.470700000000     0.416800000000     0          
T        Si     0.591366666667     0.666600000000     0.197400000000     0          
T        Si     0.369000000000     0.480300000000     0.469700000000     0          
T        Si     0.630633333333     0.444400000000     0.636100000000     0          
O        O      0.564333333333     0.555700000000     0.666400000000     0          
O        O      0.555100000000     0.359133333333     0.916800000000     0          
T        Si     0.591433333333     0.591366666667     0.697400000000     0          
T        Si     0.555366666667     0.369000000000     0.969700000000     0          
T        Si     0.519566666667     0.630633333333     0.136100000000     0          
O        O      0.341966666667     0.564333333333     0.166400000000     0          
O        O      0.529300000000     0.555100000000     0.416800000000     0          
T        Si     0.333400000000     0.591433333333     0.197400000000     0          
T        Si     0.519700000000     0.555366666667     0.469700000000     0          
T        Si     0.555600000000     0.519566666667     0.636100000000     0          
O        O      0.444300000000     0.341966666667     0.666400000000     0          
O        O      0.640866666667     0.529300000000     0.916800000000     0          
T        Si     0.408633333333     0.333400000000     0.697400000000     0          
T        Si     0.631000000000     0.519700000000     0.969700000000     0          
T        Si     0.369366666667     0.555600000000     0.136100000000     0          
O        O      0.435666666667     0.444300000000     0.166400000000     0          
O        O      0.444900000000     0.640866666667     0.416800000000     0          
T        Si     0.408566666667     0.408633333333     0.197400000000     0          
T        Si     0.444633333333     0.631000000000     0.469700000000     0          
T        Si     0.480433333333     0.369366666667     0.636100000000     0          
O        O      0.419400000000     0.667066666667     0.250000000000     0          
O        O      0.413833333333     0.706900000000     0.183700000000     0          
O        O      0.435666666667     0.991366666667     0.166400000000     0          
O        O      0.365500000000     0.967833333333     0.189300000000     0          
O        O      0.444900000000     0.804033333333     0.416800000000     0          
O        O      0.404400000000     0.808766666667     0.482800000000     0          
O        O      0.451966666667     0.785300000000     0.500000000000     0          
O        O      0.477100000000     0.856233333333     0.479500000000     0          
O        O      0.491400000000     0.745700000000     0.644600000000     0          
O        O      0.515266666667     0.818066666667     0.650100000000     0          
T        Si     0.408566666667     0.999933333333     0.197400000000     0          
T        Si     0.444633333333     0.813633333333     0.469700000000     0          
T        Si     0.480433333333     0.777733333333     0.636100000000     0          
O        O      0.419000000000     0.752733333333     0.750000000000     0          
O        O      0.373600000000     0.747166666667     0.683700000000     0          
O        O      0.444300000000     0.769000000000     0.666400000000     0          
O        O      0.397666666667     0.698833333333     0.689300000000     0          
O        O      0.640866666667     0.778233333333     0.916800000000     0          
O        O      0.595633333333     0.737733333333     0.982800000000     0          
O        O      0.333333333333     0.785300000000     0.000000000000     0          
O        O      0.620866666667     0.810433333333     0.979500000000     0          
O        O      0.412366666667     0.824733333333     0.144600000000     0          
O        O      0.363866666667     0.848600000000     0.150100000000     0          
T        Si     0.408633333333     0.741900000000     0.697400000000     0          
T        Si     0.631000000000     0.777966666667     0.969700000000     0          
T        Si     0.369366666667     0.813766666667     0.136100000000     0          
O        O      0.666266666667     0.752333333333     0.250000000000     0          
O        O      0.626433333333     0.706933333333     0.183700000000     0          
O        O      0.341966666667     0.777633333333     0.166400000000     0          
O        O      0.365500000000     0.731000000000     0.189300000000     0          
O        O      0.529300000000     0.974200000000     0.416800000000     0          
O        O      0.524566666667     0.928966666667     0.482800000000     0          
O        O      0.548033333333     0.666666666667     0.500000000000     0          
O        O      0.477100000000     0.954200000000     0.479500000000     0          
O        O      0.587633333333     0.745700000000     0.644600000000     0          
O        O      0.515266666667     0.697200000000     0.650100000000     0          
T        Si     0.333400000000     0.741966666667     0.197400000000     0          
T        Si     0.519700000000     0.964333333333     0.469700000000     0          
T        Si     0.555600000000     0.702700000000     0.636100000000     0          
O        O      0.580600000000     0.999600000000     0.750000000000     0          
O        O      0.586166666667     0.959766666667     0.683700000000     0          
O        O      0.564333333333     0.675300000000     0.666400000000     0          
O        O      0.634500000000     0.698833333333     0.689300000000     0          
O        O      0.555100000000     0.862633333333     0.916800000000     0          
O        O      0.595600000000     0.857900000000     0.982800000000     0          
O        O      0.548033333333     0.881366666667     0.000000000000     0          
O        O      0.522900000000     0.810433333333     0.979500000000     0          
O        O      0.508600000000     0.920966666667     0.144600000000     0          
O        O      0.484733333333     0.848600000000     0.150100000000     0          
T        Si     0.591433333333     0.666733333333     0.697400000000     0          
T        Si     0.555366666667     0.853033333333     0.969700000000     0          
T        Si     0.519566666667     0.888933333333     0.136100000000     0          
O        O      0.581000000000     0.913933333333     0.250000000000     0          
O        O      0.626400000000     0.919500000000     0.183700000000     0          
O        O      0.555700000000     0.897666666667     0.166400000000     0          
O        O      0.602333333333     0.967833333333     0.189300000000     0          
O        O      0.359133333333     0.888433333333     0.416800000000     0          
O        O      0.404366666667     0.928933333333     0.482800000000     0          
O        O      0.333333333333     0.881366666667     0.500000000000     0          
O        O      0.379133333333     0.856233333333     0.479500000000     0          
O        O      0.587633333333     0.841933333333     0.644600000000     0          
O        O      0.636133333333     0.818066666667     0.650100000000     0          
T        Si     0.591366666667     0.924766666667     0.197400000000     0          
T        Si     0.369000000000     0.888700000000     0.469700000000     0          
T        Si     0.630633333333     0.852900000000     0.636100000000     0          
O        O      0.333733333333     0.914333333333     0.750000000000     0          
O        O      0.373566666667     0.959733333333     0.683700000000     0          
O        O      0.658033333333     0.889033333333     0.666400000000     0          
O        O      0.634500000000     0.935666666667     0.689300000000     0          
O        O      0.470700000000     0.692466666667     0.916800000000     0          
O        O      0.475433333333     0.737700000000     0.982800000000     0          
O        O      0.451966666667     0.666666666667     0.000000000000     0          
O        O      0.522900000000     0.712466666667     0.979500000000     0          
O        O      0.412366666667     0.920966666667     0.144600000000     0          
O        O      0.484733333333     0.969466666667     0.150100000000     0          
T        Si     0.666600000000     0.924700000000     0.697400000000     0          
T        Si     0.480300000000     0.702333333333     0.969700000000     0          
T        Si     0.444400000000     0.963966666667     0.136100000000     0          
O        O      0.666266666667     0.913933333333     0.250000000000     0          
O        O      0.626433333333     0.919500000000     0.316300000000     0          
O        O      0.341966666667     0.897666666667     0.333600000000     0          
O        O      0.365500000000     0.967833333333     0.310700000000     0          
O        O      0.529300000000     0.888433333333     0.083200000000     0          
O        O      0.524566666667     0.928933333333     0.017200000000     0          
O        O      0.477100000000     0.856233333333     0.020500000000     0          
O        O      0.587633333333     0.841933333333     0.855400000000     0          
O        O      0.515266666667     0.818066666667     0.849900000000     0          
T        Si     0.333400000000     0.924766666667     0.302600000000     0          
T        Si     0.519700000000     0.888700000000     0.030300000000     0          
T        Si     0.555600000000     0.852900000000     0.863900000000     0          
O        O      0.419000000000     0.999600000000     0.750000000000     0          
O        O      0.373600000000     0.959766666667     0.816300000000     0          
O        O      0.444300000000     0.675300000000     0.833600000000     0          
O        O      0.397666666667     0.698833333333     0.810700000000     0          
O        O      0.640866666667     0.862633333333     0.583200000000     0          
O        O      0.595633333333     0.857900000000     0.517200000000     0          
O        O      0.620866666667     0.810433333333     0.520500000000     0          
O        O      0.412366666667     0.920966666667     0.355400000000     0          
O        O      0.363866666667     0.848600000000     0.349900000000     0          
T        Si     0.408633333333     0.666733333333     0.802600000000     0          
T        Si     0.631000000000     0.853033333333     0.530300000000     0          
T        Si     0.369366666667     0.888933333333     0.363900000000     0          
O        O      0.419400000000     0.752333333333     0.250000000000     0          
O        O      0.413833333333     0.706933333333     0.316300000000     0          
O        O      0.435666666667     0.777633333333     0.333600000000     0          
O        O      0.365500000000     0.731000000000     0.310700000000     0          
O        O      0.444900000000     0.974200000000     0.083200000000     0          
O        O      0.404400000000     0.928966666667     0.017200000000     0          
O        O      0.477100000000     0.954200000000     0.020500000000     0          
O        O      0.491400000000     0.745700000000     0.855400000000     0          
O        O      0.515266666667     0.697200000000     0.849900000000     0          
T        Si     0.408566666667     0.741966666667     0.302600000000     0          
T        Si     0.444633333333     0.964333333333     0.030300000000     0          
T        Si     0.480433333333     0.702700000000     0.863900000000     0          
O        O      0.333733333333     0.752733333333     0.750000000000     0          
O        O      0.373566666667     0.747166666667     0.816300000000     0          
O        O      0.658033333333     0.769000000000     0.833600000000     0          
O        O      0.634500000000     0.698833333333     0.810700000000     0          
O        O      0.470700000000     0.778233333333     0.583200000000     0          
O        O      0.475433333333     0.737733333333     0.517200000000     0          
O        O      0.522900000000     0.810433333333     0.520500000000     0          
O        O      0.412366666667     0.824733333333     0.355400000000     0          
O        O      0.484733333333     0.848600000000     0.349900000000     0          
T        Si     0.666600000000     0.741900000000     0.802600000000     0          
T        Si     0.480300000000     0.777966666667     0.530300000000     0          
T        Si     0.444400000000     0.813766666667     0.363900000000     0          
O        O      0.581000000000     0.667066666667     0.250000000000     0          
O        O      0.626400000000     0.706900000000     0.316300000000     0          
O        O      0.555700000000     0.991366666667     0.333600000000     0          
O        O      0.602333333333     0.967833333333     0.310700000000     0          
O        O      0.359133333333     0.804033333333     0.083200000000     0          
O        O      0.404366666667     0.808766666667     0.017200000000     0          
O        O      0.379133333333     0.856233333333     0.020500000000     0          
O        O      0.587633333333     0.745700000000     0.855400000000     0          
O        O      0.636133333333     0.818066666667     0.849900000000     0          
T        Si     0.591366666667     0.999933333333     0.302600000000     0          
T        Si     0.369000000000     0.813633333333     0.030300000000     0          
T        Si     0.630633333333     0.777733333333     0.863900000000     0          
O        O      0.580600000000     0.914333333333     0.750000000000     0          
O        O      0.586166666667     0.959733333333     0.816300000000     0          
O        O      0.564333333333     0.889033333333     0.833600000000     0          
O        O      0.634500000000     0.935666666667     0.810700000000     0          
O        O      0.555100000000     0.692466666667     0.583200000000     0          
O        O      0.595600000000     0.737700000000     0.517200000000     0          
O        O      0.522900000000     0.712466666667     0.520500000000     0          
O        O      0.508600000000     0.920966666667     0.355400000000     0          
O        O      0.484733333333     0.969466666667     0.349900000000     0          
T        Si     0.591433333333     0.924700000000     0.802600000000     0          
T        Si     0.555366666667     0.702333333333     0.530300000000     0          
T        Si     0.519566666667     0.963966666667     0.363900000000     0          
O        O      0.564333333333     0.675300000000     0.833600000000     0          
O        O      0.555100000000     0.862633333333     0.583200000000     0          
O        O      0.548033333333     0.881366666667     0.500000000000     0          
T        Si     0.591433333333     0.666733333333     0.802600000000     0          
T        Si     0.555366666667     0.853033333333     0.530300000000     0          
T        Si     0.519566666667     0.888933333333     0.363900000000     0          
O        O      0.555700000000     0.897666666667     0.333600000000     0          
O        O      0.359133333333     0.888433333333     0.083200000000     0          
O        O      0.333333333333     0.881366666667     0.000000000000     0          
T        Si     0.591366666667     0.924766666667     0.302600000000     0          
T        Si     0.369000000000     0.888700000000     0.030300000000     0          
T        Si     0.630633333333     0.852900000000     0.863900000000     0          
O        O      0.658033333333     0.889033333333     0.833600000000     0          
O        O      0.470700000000     0.692466666667     0.583200000000     0          
O        O      0.451966666667     0.666666666667     0.500000000000     0          
T        Si     0.666600000000     0.924700000000     0.802600000000     0          
T        Si     0.480300000000     0.702333333333     0.530300000000     0          
T        Si     0.444400000000     0.963966666667     0.363900000000     0          
O        O      0.435666666667     0.991366666667     0.333600000000     0          
O        O      0.444900000000     0.804033333333     0.083200000000     0          
O        O      0.451966666667     0.785300000000     0.000000000000     0          
T        Si     0.408566666667     0.999933333333     0.302600000000     0          
T        Si     0.444633333333     0.813633333333     0.030300000000     0          
T        Si     0.480433333333     0.777733333333     0.863900000000     0          
O        O      0.444300000000     0.769000000000     0.833600000000     0          
O        O      0.640866666667     0.778233333333     0.583200000000     0          
O        O      0.333333333333     0.785300000000     0.500000000000     0          
T        Si     0.408633333333     0.741900000000     0.802600000000     0          
T        Si     0.631000000000     0.777966666667     0.530300000000     0          
T        Si     0.369366666667     0.813766666667     0.363900000000     0          
O        O      0.341966666667     0.777633333333     0.333600000000     0          
O        O      0.529300000000     0.974200000000     0.083200000000     0          
O        O      0.548033333333     0.666666666667     0.000000000000     0          
T        Si     0.333400000000     0.741966666667     0.302600000000     0          
T        Si     0.519700000000     0.964333333333     0.030300000000     0          
T        Si     0.555600000000     0.702700000000     0.863900000000     0          
O        O      0.658033333333     0.769000000000     0.666400000000     0          
O        O      0.470700000000     0.778233333333     0.916800000000     0          
T        Si     0.666600000000     0.741900000000     0.697400000000     0          
T        Si     0.480300000000     0.777966666667     0.969700000000     0          
T        Si     0.444400000000     0.813766666667     0.136100000000     0          
O        O      0.555700000000     0.991366666667     0.166400000000     0          
O        O      0.359133333333     0.804033333333     0.416800000000     0          
T        Si     0.591366666667     0.999933333333     0.197400000000     0          
T        Si     0.369000000000     0.813633333333     0.469700000000     0          
T        Si     0.630633333333     0.777733333333     0.636100000000     0          
O        O      0.564333333333     0.889033333333     0.666400000000     0          
O        O      0.555100000000     0.692466666667     0.916800000000     0          
T        Si     0.591433333333     0.924700000000     0.697400000000     0          
T        Si     0.555366666667     0.702333333333     0.969700000000     0          
T        Si     0.519566666667     0.963966666667     0.136100000000     0          
O        O      0.341966666667     0.897666666667     0.166400000000     0          
O        O      0.529300000000     0.888433333333     0.416800000000     0          
T        Si     0.333400000000     0.924766666667     0.197400000000     0          
T        Si     0.519700000000     0.888700000000     0.469700000000     0          
T        Si     0.555600000000     0.852900000000     0.636100000000     0          
O        O      0.444300000000     0.675300000000     0.666400000000     0          
O        O      0.640866666667     0.862633333333     0.916800000000     0          
T        Si     0.408633333333     0.666733333333     0.697400000000     0          
T        Si     0.631000000000     0.853033333333     0.969700000000     0          
T        Si     0.369366666667     0.888933333333     0.136100000000     0          
O        O      0.435666666667     0.777633333333     0.166400000000     0          
O        O      0.444900000000     0.974200000000     0.416800000000     0          
T        Si     0.408566666667     0.741966666667     0.197400000000     0          
T        Si     0.444633333333     0.964333333333     0.469700000000     0          
T        Si     0.480433333333     0.702700000000     0.636100000000     0          
O        O      0.752733333333     0.000400000000     0.250000000000     0          
O        O      0.747166666667     0.040233333333     0.183700000000     0          
O        O      0.769000000000     0.324700000000     0.166400000000     0          
O        O      0.698833333333     0.301166666667     0.189300000000     0          
O        O      0.778233333333     0.137366666667     0.416800000000     0          
O        O      0.737733333333     0.142100000000     0.482800000000     0          
O        O      0.785300000000     0.118633333333     0.500000000000     0          
O        O      0.810433333333     0.189566666667     0.479500000000     0          
O        O      0.824733333333     0.079033333333     0.644600000000     0          
O        O      0.848600000000     0.151400000000     0.650100000000     0          
T        Si     0.741900000000     0.333266666667     0.197400000000     0          
T        Si     0.777966666667     0.146966666667     0.469700000000     0          
T        Si     0.813766666667     0.111066666667     0.636100000000     0          
O        O      0.752333333333     0.086066666667     0.750000000000     0          
O        O      0.706933333333     0.080500000000     0.683700000000     0          
O        O      0.777633333333     0.102333333333     0.666400000000     0          
O        O      0.731000000000     0.032166666667     0.689300000000     0          
O        O      0.974200000000     0.111566666667     0.916800000000     0          
O        O      0.928966666667     0.071066666667     0.982800000000     0          
O        O      0.666666666667     0.118633333333     0.000000000000     0          
O        O      0.954200000000     0.143766666667     0.979500000000     0          
O        O      0.745700000000     0.158066666667     0.144600000000     0          
O        O      0.697200000000     0.181933333333     0.150100000000     0          
T        Si     0.741966666667     0.075233333333     0.697400000000     0          
T        Si     0.964333333333     0.111300000000     0.969700000000     0          
T        Si     0.702700000000     0.147100000000     0.136100000000     0          
O        O      0.999600000000     0.085666666667     0.250000000000     0          
O        O      0.959766666667     0.040266666667     0.183700000000     0          
O        O      0.675300000000     0.110966666667     0.166400000000     0          
O        O      0.698833333333     0.064333333333     0.189300000000     0          
O        O      0.862633333333     0.307533333333     0.416800000000     0          
O        O      0.857900000000     0.262300000000     0.482800000000     0          
O        O      0.881366666667     0.000000000000     0.500000000000     0          
O        O      0.810433333333     0.287533333333     0.479500000000     0          
O        O      0.920966666667     0.079033333333     0.644600000000     0          
O        O      0.848600000000     0.030533333333     0.650100000000     0          
T        Si     0.666733333333     0.075300000000     0.197400000000     0          
T        Si     0.853033333333     0.297666666667     0.469700000000     0          
T        Si     0.888933333333     0.036033333333     0.636100000000     0          
O        O      0.913933333333     0.332933333333     0.750000000000     0          
O        O      0.919500000000     0.293100000000     0.683700000000     0          
O        O      0.897666666667     0.008633333333     0.666400000000     0          
O        O      0.967833333333     0.032166666667     0.689300000000     0          
O        O      0.888433333333     0.195966666667     0.916800000000     0          
O        O      0.928933333333     0.191233333333     0.982800000000     0          
O        O      0.881366666667     0.214700000000     0.000000000000     0          
O        O      0.856233333333     0.143766666667     0.979500000000     0          
O        O      0.841933333333     0.254300000000     0.144600000000     0          
O        O      0.818066666667     0.181933333333     0.150100000000     0          
T        Si     0.924766666667     0.000066666667     0.697400000000     0          
T        Si     0.888700000000     0.186366666667     0.969700000000     0          
T        Si     0.852900000000     0.222266666667     0.136100000000     0          
O        O      0.914333333333     0.247266666667     0.250000000000     0          
O        O      0.959733333333     0.252833333333     0.183700000000     0          
O        O      0.889033333333     0.231000000000     0.166400000000     0          
O        O      0.935666666667     0.301166666667     0.189300000000     0          
O        O      0.692466666667     0.221766666667     0.416800000000     0          
O        O      0.737700000000     0.262266666667     0.482800000000     0          
O        O      0.666666666667     0.214700000000     0.500000000000     0          
O        O      0.712466666667     0.189566666667     0.479500000000     0          
O        O      0.920966666667     0.175266666667     0.644600000000     0          
O        O      0.969466666667     0.151400000000     0.650100000000     0          
T        Si     0.924700000000     0.258100000000     0.197400000000     0          
T        Si     0.702333333333     0.222033333333     0.469700000000     0          
T        Si     0.963966666667     0.186233333333     0.636100000000     0          
O        O      0.667066666667     0.247666666667     0.750000000000     0          
O        O      0.706900000000     0.293066666667     0.683700000000     0          
O        O      0.991366666667     0.222366666667     0.666400000000     0          
O        O      0.967833333333     0.269000000000     0.689300000000     0          
O        O      0.804033333333     0.025800000000     0.916800000000     0          
O        O      0.808766666667     0.071033333333     0.982800000000     0          
O        O      0.785300000000     0.000000000000     0.000000000000     0          
O        O      0.856233333333     0.045800000000     0.979500000000     0          
O        O      0.745700000000     0.254300000000     0.144600000000     0          
O        O      0.818066666667     0.302800000000     0.150100000000     0          
T        Si     0.999933333333     0.258033333333     0.697400000000     0          
T        Si     0.813633333333     0.035666666667     0.969700000000     0          
T        Si     0.777733333333     0.297300000000     0.136100000000     0          
O        O      0.999600000000     0.247266666667     0.250000000000     0          
O        O      0.959766666667     0.252833333333     0.316300000000     0          
O        O      0.675300000000     0.231000000000     0.333600000000     0          
O        O      0.698833333333     0.301166666667     0.310700000000     0          
O        O      0.862633333333     0.221766666667     0.083200000000     0          
O        O      0.857900000000     0.262266666667     0.017200000000     0          
O        O      0.810433333333     0.189566666667     0.020500000000     0          
O        O      0.920966666667     0.175266666667     0.855400000000     0          
O        O      0.848600000000     0.151400000000     0.849900000000     0          
T        Si     0.666733333333     0.258100000000     0.302600000000     0          
T        Si     0.853033333333     0.222033333333     0.030300000000     0          
T        Si     0.888933333333     0.186233333333     0.863900000000     0          
O        O      0.752333333333     0.332933333333     0.750000000000     0          
O        O      0.706933333333     0.293100000000     0.816300000000     0          
O        O      0.777633333333     0.008633333333     0.833600000000     0          
O        O      0.731000000000     0.032166666667     0.810700000000     0          
O        O      0.974200000000     0.195966666667     0.583200000000     0          
O        O      0.928966666667     0.191233333333     0.517200000000     0          
O        O      0.954200000000     0.143766666667     0.520500000000     0          
O        O      0.745700000000     0.254300000000     0.355400000000     0          
O        O      0.697200000000     0.181933333333     0.349900000000     0          
T        Si     0.741966666667     0.000066666667     0.802600000000     0          
T        Si     0.964333333333     0.186366666667     0.530300000000     0          
T        Si     0.702700000000     0.222266666667     0.363900000000     0          
O        O      0.752733333333     0.085666666667     0.250000000000     0          
O        O      0.747166666667     0.040266666667     0.316300000000     0          
O        O      0.769000000000     0.110966666667     0.333600000000     0          
O        O      0.698833333333     0.064333333333     0.310700000000     0          
O        O      0.778233333333     0.307533333333     0.083200000000     0          
O        O      0.737733333333     0.262300000000     0.017200000000     0          
O        O      0.810433333333     0.287533333333     0.020500000000     0          
O        O      0.824733333333     0.079033333333     0.855400000000     0          
O        O      0.848600000000     0.030533333333     0.849900000000     0          
T        Si     0.741900000000     0.075300000000     0.302600000000     0          
T        Si     0.777966666667     0.297666666667     0.030300000000     0          
T        Si     0.813766666667     0.036033333333     0.863900000000     0          
O        O      0.667066666667     0.086066666667     0.750000000000     0          
O        O      0.706900000000     0.080500000000     0.816300000000     0          
O        O      0.991366666667     0.102333333333     0.833600000000     0          
O        O      0.967833333333     0.032166666667     0.810700000000     0          
O        O      0.804033333333     0.111566666667     0.583200000000     0          
O        O      0.808766666667     0.071066666667     0.517200000000     0          
O        O      0.856233333333     0.143766666667     0.520500000000     0          
O        O      0.745700000000     0.158066666667     0.355400000000     0          
O        O      0.818066666667     0.181933333333     0.349900000000     0          
T        Si     0.999933333333     0.075233333333     0.802600000000     0          
T        Si     0.813633333333     0.111300000000     0.530300000000     0          
T        Si     0.777733333333     0.147100000000     0.363900000000     0          
O        O      0.914333333333     0.000400000000     0.250000000000     0          
O        O      0.959733333333     0.040233333333     0.316300000000     0          
O        O      0.889033333333     0.324700000000     0.333600000000     0          
O        O      0.935666666667     0.301166666667     0.310700000000     0          
O        O      0.692466666667     0.137366666667     0.083200000000     0          
O        O      0.737700000000     0.142100000000     0.017200000000     0          
O        O      0.712466666667     0.189566666667     0.020500000000     0          
O        O      0.920966666667     0.079033333333     0.855400000000     0          
O        O      0.969466666667     0.151400000000     0.849900000000     0          
T        Si     0.924700000000     0.333266666667     0.302600000000     0          
T        Si     0.702333333333     0.146966666667     0.030300000000     0          
T        Si     0.963966666667     0.111066666667     0.863900000000     0          
O        O      0.913933333333     0.247666666667     0.750000000000     0          
O        O      0.919500000000     0.293066666667     0.816300000000     0          
O        O      0.897666666667     0.222366666667     0.833600000000     0          
O        O      0.967833333333     0.269000000000     0.810700000000     0          
O        O      0.888433333333     0.025800000000     0.583200000000     0          
O        O      0.928933333333     0.071033333333     0.517200000000     0          
O        O      0.856233333333     0.045800000000     0.520500000000     0          
O        O      0.841933333333     0.254300000000     0.355400000000     0          
O        O      0.818066666667     0.302800000000     0.349900000000     0          
T        Si     0.924766666667     0.258033333333     0.802600000000     0          
T        Si     0.888700000000     0.035666666667     0.530300000000     0          
T        Si     0.852900000000     0.297300000000     0.363900000000     0          
O        O      0.897666666667     0.008633333333     0.833600000000     0          
O        O      0.888433333333     0.195966666667     0.583200000000     0          
O        O      0.881366666667     0.214700000000     0.500000000000     0          
T        Si     0.924766666667     0.000066666667     0.802600000000     0          
T        Si     0.888700000000     0.186366666667     0.530300000000     0          
T        Si     0.852900000000     0.222266666667     0.363900000000     0          
O        O      0.889033333333     0.231000000000     0.333600000000     0          
O        O      0.692466666667     0.221766666667     0.083200000000     0          
O        O      0.666666666667     0.214700000000     0.000000000000     0          
T        Si     0.924700000000     0.258100000000     0.302600000000     0          
T        Si     0.702333333333     0.222033333333     0.030300000000     0          
T        Si     0.963966666667     0.186233333333     0.863900000000     0          
O        O      0.991366666667     0.222366666667     0.833600000000     0          
O        O      0.804033333333     0.025800000000     0.583200000000     0          
O        O      0.785300000000     0.000000000000     0.500000000000     0          
T        Si     0.999933333333     0.258033333333     0.802600000000     0          
T        Si     0.813633333333     0.035666666667     0.530300000000     0          
T        Si     0.777733333333     0.297300000000     0.363900000000     0          
O        O      0.769000000000     0.324700000000     0.333600000000     0          
O        O      0.778233333333     0.137366666667     0.083200000000     0          
O        O      0.785300000000     0.118633333333     0.000000000000     0          
T        Si     0.741900000000     0.333266666667     0.302600000000     0          
T        Si     0.777966666667     0.146966666667     0.030300000000     0          
T        Si     0.813766666667     0.111066666667     0.863900000000     0          
O        O      0.777633333333     0.102333333333     0.833600000000     0          
O        O      0.974200000000     0.111566666667     0.583200000000     0          
O        O      0.666666666667     0.118633333333     0.500000000000     0          
T        Si     0.741966666667     0.075233333333     0.802600000000     0          
T        Si     0.964333333333     0.111300000000     0.530300000000     0          
T        Si     0.702700000000     0.147100000000     0.363900000000     0          
O        O      0.675300000000     0.110966666667     0.333600000000     0          
O        O      0.862633333333     0.307533333333     0.083200000000     0          
O        O      0.881366666667     0.000000000000     0.000000000000     0          
T        Si     0.666733333333     0.075300000000     0.302600000000     0          
T        Si     0.853033333333     0.297666666667     0.030300000000     0          
T        Si     0.888933333333     0.036033333333     0.863900000000     0          
O        O      0.991366666667     0.102333333333     0.666400000000     0          
O        O      0.804033333333     0.111566666667     0.916800000000     0          
T        Si     0.999933333333     0.075233333333     0.697400000000     0          
T        Si     0.813633333333     0.111300000000     0.969700000000     0          
T        Si     0.777733333333     0.147100000000     0.136100000000     0          
O        O      0.889033333333     0.324700000000     0.166400000000     0          
O        O      0.692466666667     0.137366666667     0.416800000000     0          
T        Si     0.924700000000     0.333266666667     0.197400000000     0          
T        Si     0.702333333333     0.146966666667     0.469700000000     0          
T        Si     0.963966666667     0.111066666667     0.636100000000     0          
O        O      0.897666666667     0.222366666667     0.666400000000     0          
O        O      0.888433333333     0.025800000000     0.916800000000     0          
T        Si     0.924766666667     0.258033333333     0.697400000000     0          
T        Si     0.888700000000     0.035666666667     0.969700000000     0          
T        Si     0.852900000000     0.297300000000     0.136100000000     0          
O        O      0.675300000000     0.231000000000     0.166400000000     0          
O        O      0.862633333333     0.221766666667     0.416800000000     0          
T        Si     0.666733333333     0.258100000000     0.197400000000     0          
T        Si     0.853033333333     0.222033333333     0.469700000000     0          
T        Si     0.888933333333     0.186233333333     0.636100000000     0          
O        O      0.777633333333     0.008633333333     0.666400000000     0          
O        O      0.974200000000     0.195966666667     0.916800000000     0          
T        Si     0.741966666667     0.000066666667     0.697400000000     0          
T        Si     0.964333333333     0.186366666667     0.969700000000     0          
T        Si     0.702700000000     0.222266666667     0.136100000000     0          
O        O      0.769000000000     0.110966666667     0.166400000000     0          
O        O      0.778233333333     0.307533333333     0.416800000000     0          
T        Si     0.741900000000     0.075300000000     0.197400000000     0          
T        Si     0.777966666667     0.297666666667     0.469700000000     0          
T        Si     0.813766666667     0.036033333333     0.636100000000     0          
O        O      0.752733333333     0.333733333333     0.250000000000     0          
O        O      0.747166666667     0.373566666667     0.183700000000     0          
O        O      0.769000000000     0.658033333333     0.166400000000     0          
O        O      0.698833333333     0.634500000000     0.189300000000     0          
O        O      0.778233333333     0.470700000000     0.416800000000     0          
O        O      0.737733333333     0.475433333333     0.482800000000     0          
O        O      0.785300000000     0.451966666667     0.500000000000     0          
O        O      0.810433333333     0.522900000000     0.479500000000     0          
O        O      0.824733333333     0.412366666667     0.644600000000     0          
O        O      0.848600000000     0.484733333333     0.650100000000     0          
T        Si     0.741900000000     0.666600000000     0.197400000000     0          
T        Si     0.777966666667     0.480300000000     0.469700000000     0          
T        Si     0.813766666667     0.444400000000     0.636100000000     0          
O        O      0.752333333333     0.419400000000     0.750000000000     0          
O        O      0.706933333333     0.413833333333     0.683700000000     0          
O        O      0.777633333333     0.435666666667     0.666400000000     0          
O        O      0.731000000000     0.365500000000     0.689300000000     0          
O        O      0.974200000000     0.444900000000     0.916800000000     0          
O        O      0.928966666667     0.404400000000     0.982800000000     0          
O        O      0.666666666667     0.451966666667     0.000000000000     0          
O        O      0.954200000000     0.477100000000     0.979500000000     0          
O        O      0.745700000000     0.491400000000     0.144600000000     0          
O        O      0.697200000000     0.515266666667     0.150100000000     0          
T        Si     0.741966666667     0.408566666667     0.697400000000     0          
T        Si     0.964333333333     0.444633333333     0.969700000000     0          
T        Si     0.702700000000     0.480433333333     0.136100000000     0          
O        O      0.999600000000     0.419000000000     0.250000000000     0          
O        O      0.959766666667     0.373600000000     0.183700000000     0          
O        O      0.675300000000     0.444300000000     0.166400000000     0          
O        O      0.698833333333     0.397666666667     0.189300000000     0          
O        O      0.862633333333     0.640866666667     0.416800000000     0          
O        O      0.857900000000     0.595633333333     0.482800000000     0          
O        O      0.881366666667     0.333333333333     0.500000000000     0          
O        O      0.810433333333     0.620866666667     0.479500000000     0          
O        O      0.920966666667     0.412366666667     0.644600000000     0          
O        O      0.848600000000     0.363866666667     0.650100000000     0          
T        Si     0.666733333333     0.408633333333     0.197400000000     0          
T        Si     0.853033333333     0.631000000000     0.469700000000     0          
T        Si     0.888933333333     0.369366666667     0.636100000000     0          
O        O      0.913933333333     0.666266666667     0.750000000000     0          
O        O      0.919500000000     0.626433333333     0.683700000000     0          
O        O      0.897666666667     0.341966666667     0.666400000000     0          
O        O      0.967833333333     0.365500000000     0.689300000000     0          
O        O      0.888433333333     0.529300000000     0.916800000000     0          
O        O      0.928933333333     0.524566666667     0.982800000000     0          
O        O      0.881366666667     0.548033333333     0.000000000000     0          
O        O      0.856233333333     0.477100000000     0.979500000000     0          
O        O      0.841933333333     0.587633333333     0.144600000000     0          
O        O      0.818066666667     0.515266666667     0.150100000000     0          
T        Si     0.924766666667     0.333400000000     0.697400000000     0          
T        Si     0.888700000000     0.519700000000     0.969700000000     0          
T        Si     0.852900000000     0.555600000000     0.136100000000     0          
O        O      0.914333333333     0.580600000000     0.250000000000     0          
O        O      0.959733333333     0.586166666667     0.183700000000     0          
O        O      0.889033333333     0.564333333333     0.166400000000     0          
O        O      0.935666666667     0.634500000000     0.189300000000     0          
O        O      0.692466666667     0.555100000000     0.416800000000     0          
O        O      0.737700000000     0.595600000000     0.482800000000     0          
O        O      0.666666666667     0.548033333333     0.500000000000     0          
O        O      0.712466666667     0.522900000000     0.479500000000     0          
O        O      0.920966666667     0.508600000000     0.644600000000     0          
O        O      0.969466666667     0.484733333333     0.650100000000     0          
T        Si     0.924700000000     0.591433333333     0.197400000000     0          
T        Si     0.702333333333     0.555366666667     0.469700000000     0          
T        Si     0.963966666667     0.519566666667     0.636100000000     0          
O        O      0.667066666667     0.581000000000     0.750000000000     0          
O        O      0.706900000000     0.626400000000     0.683700000000     0          
O        O      0.991366666667     0.555700000000     0.666400000000     0          
O        O      0.967833333333     0.602333333333     0.689300000000     0          
O        O      0.804033333333     0.359133333333     0.916800000000     0          
O        O      0.808766666667     0.404366666667     0.982800000000     0          
O        O      0.785300000000     0.333333333333     0.000000000000     0          
O        O      0.856233333333     0.379133333333     0.979500000000     0          
O        O      0.745700000000     0.587633333333     0.144600000000     0          
O        O      0.818066666667     0.636133333333     0.150100000000     0          
T        Si     0.999933333333     0.591366666667     0.697400000000     0          
T        Si     0.813633333333     0.369000000000     0.969700000000     0          
T        Si     0.777733333333     0.630633333333     0.136100000000     0          
O        O      0.999600000000     0.580600000000     0.250000000000     0          
O        O      0.959766666667     0.586166666667     0.316300000000     0          
O        O      0.675300000000     0.564333333333     0.333600000000     0          
O        O      0.698833333333     0.634500000000     0.310700000000     0          
O        O      0.862633333333     0.555100000000     0.083200000000     0          
O        O      0.857900000000     0.595600000000     0.017200000000     0          
O        O      0.810433333333     0.522900000000     0.020500000000     0          
O        O      0.920966666667     0.508600000000     0.855400000000     0          
O        O      0.848600000000     0.484733333333     0.849900000000     0          
T        Si     0.666733333333     0.591433333333     0.302600000000     0          
T        Si     0.853033333333     0.555366666667     0.030300000000     0          
T        Si     0.888933333333     0.519566666667     0.863900000000     0          
O        O      0.752333333333     0.666266666667     0.750000000000     0          
O        O      0.706933333333     0.626433333333     0.816300000000     0          
O        O      0.777633333333     0.341966666667     0.833600000000     0          
O        O      0.731000000000     0.365500000000     0.810700000000     0          
O        O      0.974200000000     0.529300000000     0.583200000000     0          
O        O      0.928966666667     0.524566666667     0.517200000000     0          
O        O      0.954200000000     0.477100000000     0.520500000000     0          
O        O      0.745700000000     0.587633333333     0.355400000000     0          
O        O      0.697200000000     0.515266666667     0.349900000000     0          
T        Si     0.741966666667     0.333400000000     0.802600000000     0          
T        Si     0.964333333333     0.519700000000     0.530300000000     0          
T        Si     0.702700000000     0.555600000000     0.363900000000     0          
O        O      0.752733333333     0.419000000000     0.250000000000     0          
O        O      0.747166666667     0.373600000000     0.316300000000     0          
O        O      0.769000000000     0.444300000000     0.333600000000     0          
O        O      0.698833333333     0.397666666667     0.310700000000     0          
O        O      0.778233333333     0.640866666667     0.083200000000     0          
O        O      0.737733333333     0.595633333333     0.017200000000     0          
O        O      0.810433333333     0.620866666667     0.020500000000     0          
O        O      0.824733333333     0.412366666667     0.855400000000     0          
O        O      0.848600000000     0.363866666667     0.849900000000     0          
T        Si     0.741900000000     0.408633333333     0.302600000000     0          
T        Si     0.777966666667     0.631000000000     0.030300000000     0          
T        Si     0.813766666667     0.369366666667     0.863900000000     0          
O        O      0.667066666667     0.419400000000     0.750000000000     0          
O        O      0.706900000000     0.413833333333     0.816300000000     0          
O        O      0.991366666667     0.435666666667     0.833600000000     0          
O        O      0.967833333333     0.365500000000     0.810700000000     0          
O        O      0.804033333333     0.444900000000     0.583200000000     0          
O        O      0.808766666667     0.404400000000     0.517200000000     0          
O        O      0.856233333333     0.477100000000     0.520500000000     0          
O        O      0.745700000000     0.491400000000     0.355400000000     0          
O        O      0.818066666667     0.515266666667     0.349900000000     0          
T        Si     0.999933333333     0.408566666667     0.802600000000     0          
T        Si     0.813633333333     0.444633333333     0.530300000000     0          
T        Si     0.777733333333     0.480433333333     0.363900000000     0          
O        O      0.914333333333     0.333733333333     0.250000000000     0          
O        O      0.959733333333     0.373566666667     0.316300000000     0          
O        O      0.889033333333     0.658033333333     0.333600000000     0          
O        O      0.935666666667     0.634500000000     0.310700000000     0          
O        O      0.692466666667     0.470700000000     0.083200000000     0          
O        O      0.737700000000     0.475433333333     0.017200000000     0          
O        O      0.712466666667     0.522900000000     0.020500000000     0          
O        O      0.920966666667     0.412366666667     0.855400000000     0          
O        O      0.969466666667     0.484733333333     0.849900000000     0          
T        Si     0.924700000000     0.666600000000     0.302600000000     0          
T        Si     0.702333333333     0.480300000000     0.030300000000     0          
T        Si     0.963966666667     0.444400000000     0.863900000000     0          
O        O      0.913933333333     0.581000000000     0.750000000000     0          
O        O      0.919500000000     0.626400000000     0.816300000000     0          
O        O      0.897666666667     0.555700000000     0.833600000000     0          
O        O      0.967833333333     0.602333333333     0.810700000000     0          
O        O      0.888433333333     0.359133333333     0.583200000000     0          
O        O      0.928933333333     0.404366666667     0.517200000000     0          
O        O      0.856233333333     0.379133333333     0.520500000000     0          
O        O      0.841933333333     0.587633333333     0.355400000000     0          
O        O      0.818066666667     0.636133333333     0.349900000000     0          
T        Si     0.924766666667     0.591366666667     0.802600000000     0          
T        Si     0.888700000000     0.369000000000     0.530300000000     0          
T        Si     0.852900000000     0.630633333333     0.363900000000     0          
O        O      0.897666666667     0.341966666667     0.833600000000     0          
O        O      0.888433333333     0.529300000000     0.583200000000     0          
O        O      0.881366666667     0.548033333333     0.500000000000     0          
T        Si     0.924766666667     0.333400000000     0.802600000000     0          
T        Si     0.888700000000     0.519700000000     0.530300000000     0          
T        Si     0.852900000000     0.555600000000     0.363900000000     0          
O        O      0.889033333333     0.564333333333     0.333600000000     0          
O        O      0.692466666667     0.555100000000     0.083200000000     0          
O        O      0.666666666667     0.548033333333     0.000000000000     0          
T        Si     0.924700000000     0.591433333333     0.302600000000     0          
T        Si     0.702333333333     0.555366666667     0.030300000000     0          
T        Si     0.963966666667     0.519566666667     0.863900000000     0          
O        O      0.991366666667     0.555700000000     0.833600000000     0          
O        O      0.804033333333     0.359133333333     0.583200000000     0          
O        O      0.785300000000     0.333333333333     0.500000000000     0          
T        Si     0.999933333333     0.591366666667     0.802600000000     0          
T        Si     0.813633333333     0.369000000000     0.530300000000     0          
T        Si     0.777733333333     0.630633333333     0.363900000000     0          
O        O      0.769000000000     0.658033333333     0.333600000000     0          
O        O      0.778233333333     0.470700000000     0.083200000000     0          
O        O      0.785300000000     0.451966666667     0.000000000000     0          
T        Si     0.741900000000     0.666600000000     0.302600000000     0          
T        Si     0.777966666667     0.480300000000     0.030300000000     0          
T        Si     0.813766666667     0.444400000000     0.863900000000     0          
O        O      0.777633333333     0.435666666667     0.833600000000     0          
O        O      0.974200000000     0.444900000000     0.583200000000     0          
O        O      0.666666666667     0.451966666667     0.500000000000     0          
T        Si     0.741966666667     0.408566666667     0.802600000000     0          
T        Si     0.964333333333     0.444633333333     0.530300000000     0          
T        Si     0.702700000000     0.480433333333     0.363900000000     0          
O        O      0.675300000000     0.444300000000     0.333600000000     0          
O        O      0.862633333333     0.640866666667     0.083200000000     0          
O        O      0.881366666667     0.333333333333     0.000000000000     0          
T        Si     0.666733333333     0.408633333333     0.302600000000     0          
T        Si     0.853033333333     0.631000000000     0.030300000000     0          
T        Si     0.888933333333     0.369366666667     0.863900000000     0          
O        O      0.991366666667     0.435666666667     0.666400000000     0          
O        O      0.804033333333     0.444900000000     0.916800000000     0          
T        Si     0.999933333333     0.408566666667     0.697400000000     0          
T        Si     0.813633333333     0.444633333333     0.969700000000     0          
T        Si     0.777733333333     0.480433333333     0.136100000000     0          
O        O      0.889033333333     0.658033333333     0.166400000000     0          
O        O      0.692466666667     0.470700000000     0.416800000000     0          
T        Si     0.924700000000     0.666600000000     0.197400000000     0          
T        Si     0.702333333333     0.480300000000     0.469700000000     0          
T        Si     0.963966666667     0.444400000000     0.636100000000     0          
O        O      0.897666666667     0.555700000000     0.666400000000     0          
O        O      0.888433333333     0.359133333333     0.916800000000     0          
T        Si     0.924766666667     0.591366666667     0.697400000000     0          
T        Si     0.888700000000     0.369000000000     0.969700000000     0          
T        Si     0.852900000000     0.630633333333     0.136100000000     0          
O        O      0.675300000000     0.564333333333     0.166400000000     0          
O        O      0.862633333333     0.555100000000     0.416800000000     0          
T        Si     0.666733333333     0.591433333333     0.197400000000     0          
T        Si     0.853033333333     0.555366666667     0.469700000000     0          
T        Si     0.888933333333     0.519566666667     0.636100000000     0          
O        O      0.777633333333     0.341966666667     0.666400000000     0          
O        O      0.974200000000     0.529300000000     0.916800000000     0          
T        Si     0.741966666667     0.333400000000     0.697400000000     0          
T        Si     0.964333333333     0.519700000000     0.969700000000     0          
T        Si     0.702700000000     0.555600000000     0.136100000000     0          
O        O      0.769000000000     0.444300000000     0.166400000000     0          
O        O      0.778233333333     0.640866666667     0.416800000000     0          
T        Si     0.741900000000     0.408633333333     0.197400000000     0          
T        Si     0.777966666667     0.631000000000     0.469700000000     0          
T        Si     0.813766666667     0.369366666667     0.636100000000     0          
O        O      0.752733333333     0.667066666667     0.250000000000     0          
O        O      0.747166666667     0.706900000000     0.183700000000     0          
O        O      0.769000000000     0.991366666667     0.166400000000     0          
O        O      0.698833333333     0.967833333333     0.189300000000     0          
O        O      0.778233333333     0.804033333333     0.416800000000     0          
O        O      0.737733333333     0.808766666667     0.482800000000     0          
O        O      0.785300000000     0.785300000000     0.500000000000     0          
O        O      0.810433333333     0.856233333333     0.479500000000     0          
O        O      0.824733333333     0.745700000000     0.644600000000     0          
O        O      0.848600000000     0.818066666667     0.650100000000     0          
T        Si     0.741900000000     0.999933333333     0.197400000000     0          
T        Si     0.777966666667     0.813633333333     0.469700000000     0          
T        Si     0.813766666667     0.777733333333     0.636100000000     0          
O        O      0.752333333333     0.752733333333     0.750000000000     0          
O        O      0.706933333333     0.747166666667     0.683700000000     0          
O        O      0.777633333333     0.769000000000     0.666400000000     0          
O        O      0.731000000000     0.698833333333     0.689300000000     0          
O        O      0.974200000000     0.778233333333     0.916800000000     0          
O        O      0.928966666667     0.737733333333     0.982800000000     0          
O        O      0.666666666667     0.785300000000     0.000000000000     0          
O        O      0.954200000000     0.810433333333     0.979500000000     0          
O        O      0.745700000000     0.824733333333     0.144600000000     0          
O        O      0.697200000000     0.848600000000     0.150100000000     0          
T        Si     0.741966666667     0.741900000000     0.697400000000     0          
T        Si     0.964333333333     0.777966666667     0.969700000000     0          
T        Si     0.702700000000     0.813766666667     0.136100000000     0          
O        O      0.999600000000     0.752333333333     0.250000000000     0          
O        O      0.959766666667     0.706933333333     0.183700000000     0          
O        O      0.675300000000     0.777633333333     0.166400000000     0          
O        O      0.698833333333     0.731000000000     0.189300000000     0          
O        O      0.862633333333     0.974200000000     0.416800000000     0          
O        O      0.857900000000     0.928966666667     0.482800000000     0          
O        O      0.881366666667     0.666666666667     0.500000000000     0          
O        O      0.810433333333     0.954200000000     0.479500000000     0          
O        O      0.920966666667     0.745700000000     0.644600000000     0          
O        O      0.848600000000     0.697200000000     0.650100000000     0          
T        Si     0.666733333333     0.741966666667     0.197400000000     0          
T        Si     0.853033333333     0.964333333333     0.469700000000     0          
T        Si     0.888933333333     0.702700000000     0.636100000000     0          
O        O      0.913933333333     0.999600000000     0.750000000000     0          
O        O      0.919500000000     0.959766666667     0.683700000000     0          
O        O      0.897666666667     0.675300000000     0.666400000000     0          
O        O      0.967833333333     0.698833333333     0.689300000000     0          
O        O      0.888433333333     0.862633333333     0.916800000000     0          
O        O      0.928933333333     0.857900000000     0.982800000000     0          
O        O      0.881366666667     0.881366666667     0.000000000000     0          
O        O      0.856233333333     0.810433333333     0.979500000000     0          
O        O      0.841933333333     0.920966666667     0.144600000000     0          
O        O      0.818066666667     0.848600000000     0.150100000000     0          
T        Si     0.924766666667     0.666733333333     0.697400000000     0          
T        Si     0.888700000000     0.853033333333     0.969700000000     0          
T        Si     0.852900000000     0.888933333333     0.136100000000     0          
O        O      0.914333333333     0.913933333333     0.250000000000     0          
O        O      0.959733333333     0.919500000000     0.183700000000     0          
O        O      0.889033333333     0.897666666667     0.166400000000     0          
O        O      0.935666666667     0.967833333333     0.189300000000     0          
O        O      0.692466666667     0.888433333333     0.416800000000     0          
O        O      0.737700000000     0.928933333333     0.482800000000     0          
O        O      0.666666666667     0.881366666667     0.500000000000     0          
O        O      0.712466666667     0.856233333333     0.479500000000     0          
O        O      0.920966666667     0.841933333333     0.644600000000     0          
O        O      0.969466666667     0.818066666667     0.650100000000     0          
T        Si     0.924700000000     0.924766666667     0.197400000000     0          
T        Si     0.702333333333     0.888700000000     0.469700000000     0          
T        Si     0.963966666667     0.852900000000     0.636100000000     0          
O        O      0.667066666667     0.914333333333     0.750000000000     0          
O        O      0.706900000000     0.959733333333     0.683700000000     0          
O        O      0.991366666667     0.889033333333     0.666400000000     0          
O        O      0.967833333333     0.935666666667     0.689300000000     0          
O        O      0.804033333333     0.692466666667     0.916800000000     0          
O        O      0.808766666667     0.737700000000     0.982800000000     0          
O        O      0.785300000000     0.666666666667     0.000000000000     0          
O        O      0.856233333333     0.712466666667     0.979500000000     0          
O        O      0.745700000000     0.920966666667     0.144600000000     0          
O        O      0.818066666667     0.969466666667     0.150100000000     0          
T        Si     0.999933333333     0.924700000000     0.697400000000     0          
T        Si     0.813633333333     0.702333333333     0.969700000000     0          
T        Si     0.777733333333     0.963966666667     0.136100000000     0          
O        O      0.999600000000     0.913933333333     0.250000000000     0          
O        O      0.959766666667     0.919500000000     0.316300000000     0          
O        O      0.675300000000     0.897666666667     0.333600000000     0          
O        O      0.698833333333     0.967833333333     0.310700000000     0          
O        O      0.862633333333     0.888433333333     0.083200000000     0          
O        O      0.857900000000     0.928933333333     0.017200000000     0          
O        O      0.810433333333     0.856233333333     0.020500000000     0          
O        O      0.920966666667     0.841933333333     0.855400000000     0          
O        O      0.848600000000     0.818066666667     0.849900000000     0          
T        Si     0.666733333333     0.924766666667     0.302600000000     0          
T        Si     0.853033333333     0.888700000000     0.030300000000     0          
T        Si     0.888933333333     0.852900000000     0.863900000000     0          
O        O      0.752333333333     0.999600000000     0.750000000000     0          
O        O      0.706933333333     0.959766666667     0.816300000000     0          
O        O      0.777633333333     0.675300000000     0.833600000000     0          
O        O      0.731000000000     0.698833333333     0.810700000000     0          
O        O      0.974200000000     0.862633333333     0.583200000000     0          
O        O      0.928966666667     0.857900000000     0.517200000000     0          
O        O      0.954200000000     0.810433333333     0.520500000000     0          
O        O      0.745700000000     0.920966666667     0.355400000000     0          
O        O      0.697200000000     0.848600000000     0.349900000000     0          
T        Si     0.741966666667     0.666733333333     0.802600000000     0          
T        Si     0.964333333333     0.853033333333     0.530300000000     0          
T        Si     0.702700000000     0.888933333333     0.363900000000     0          
O        O      0.752733333333     0.752333333333     0.250000000000     0          
O        O      0.747166666667     0.706933333333     0.316300000000     0          
O        O      0.769000000000     0.777633333333     0.333600000000     0          
O        O      0.698833333333     0.731000000000     0.310700000000     0          
O        O      0.778233333333     0.974200000000     0.083200000000     0          
O        O      0.737733333333     0.928966666667     0.017200000000     0          
O        O      0.810433333333     0.954200000000     0.020500000000     0          
O        O      0.824733333333     0.745700000000     0.855400000000     0          
O        O      0.848600000000     0.697200000000     0.849900000000     0          
T        Si     0.741900000000     0.741966666667     0.302600000000     0          
T        Si     0.777966666667     0.964333333333     0.030300000000     0          
T        Si     0.813766666667     0.702700000000     0.863900000000     0          
O        O      0.667066666667     0.752733333333     0.750000000000     0          
O        O      0.706900000000     0.747166666667     0.816300000000     0          
O        O      0.991366666667     0.769000000000     0.833600000000     0          
O        O      0.967833333333     0.698833333333     0.810700000000     0          
O        O      0.804033333333     0.778233333333     0.583200000000     0          
O        O      0.808766666667     0.737733333333     0.517200000000     0          
O        O      0.856233333333     0.810433333333     0.520500000000     0          
O        O      0.745700000000     0.824733333333     0.355400000000     0          
O        O      0.818066666667     0.848600000000     0.349900000000     0          
T        Si     0.999933333333     0.741900000000     0.802600000000     0          
T        Si     0.813633333333     0.777966666667     0.530300000000     0          
T        Si     0.777733333333     0.813766666667     0.363900000000     0          
O        O      0.914333333333     0.667066666667     0.250000000000     0          
O        O      0.959733333333     0.706900000000     0.316300000000     0          
O        O      0.889033333333     0.991366666667     0.333600000000     0          
O        O      0.935666666667     0.967833333333     0.310700000000     0          
O        O      0.692466666667     0.804033333333     0.083200000000     0          
O        O      0.737700000000     0.808766666667     0.017200000000     0          
O        O      0.712466666667     0.856233333333     0.020500000000     0          
O        O      0.920966666667     0.745700000000     0.855400000000     0          
O        O      0.969466666667     0.818066666667     0.849900000000     0          
T        Si     0.924700000000     0.999933333333     0.302600000000     0          
T        Si     0.702333333333     0.813633333333     0.030300000000     0          
T        Si     0.963966666667     0.777733333333     0.863900000000     0          
O        O      0.913933333333     0.914333333333     0.750000000000     0          
O        O      0.919500000000     0.959733333333     0.816300000000     0          
O        O      0.897666666667     0.889033333333     0.833600000000     0          
O        O      0.967833333333     0.935666666667     0.810700000000     0          
O        O      0.888433333333     0.692466666667     0.583200000000     0          
O        O      0.928933333333     0.737700000000     0.517200000000     0          
O        O      0.856233333333     0.712466666667     0.520500000000     0          
O        O      0.841933333333     0.920966666667     0.355400000000     0          
O        O      0.818066666667     0.969466666667     0.349900000000     0          
T        Si     0.924766666667     0.924700000000     0.802600000000     0          
T        Si     0.888700000000     0.702333333333     0.530300000000     0          
T        Si     0.852900000000     0.963966666667     0.363900000000     0          
O        O      0.897666666667     0.675300000000     0.833600000000     0          
O        O      0.888433333333     0.862633333333     0.583200000000     0          
O        O      0.881366666667     0.881366666667     0.500000000000     0          
T        Si     0.924766666667     0.666733333333     0.802600000000     0          
T        Si     0.888700000000     0.853033333333     0.530300000000     0          
T        Si     0.852900000000     0.888933333333     0.363900000000     0          
O        O      0.889033333333     0.897666666667     0.333600000000     0          
O        O      0.692466666667     0.888433333333     0.083200000000     0          
O        O      0.666666666667     0.881366666667     0.000000000000     0          
T        Si     0.924700000000     0.924766666667     0.302600000000     0          
T        Si     0.702333333333     0.888700000000     0.030300000000     0          
T        Si     0.963966666667     0.852900000000     0.863900000000     0          
O        O      0.991366666667     0.889033333333     0.833600000000     0          
O        O      0.804033333333     0.692466666667     0.583200000000     0          
O        O      0.785300000000     0.666666666667     0.500000000000     0          
T        Si     0.999933333333     0.924700000000     0.802600000000     0          
T        Si     0.813633333333     0.702333333333     0.530300000000     0          
T        Si     0.777733333333     0.963966666667     0.363900000000     0          
O        O      0.769000000000     0.991366666667     0.333600000000     0          
O        O      0.778233333333     0.804033333333     0.083200000000     0          
O        O      0.785300000000     0.785300000000     0.000000000000     0          
T        Si     0.741900000000     0.999933333333     0.302600000000     0          
T        Si     0.777966666667     0.813633333333     0.030300000000     0          
T        Si     0.813766666667     0.777733333333     0.863900000000     0          
O        O      0.777633333333     0.769000000000     0.833600000000     0          
O        O      0.974200000000     0.778233333333     0.583200000000     0          
O        O      0.666666666667     0.785300000000     0.500000000000     0          
T        Si     0.741966666667     0.741900000000     0.802600000000     0          
T        Si     0.964333333333     0.777966666667     0.530300000000     0          
T        Si     0.702700000000     0.813766666667     0.363900000000     0          
O        O      0.675300000000     0.777633333333     0.333600000000     0          
O        O      0.862633333333     0.974200000000     0.083200000000     0          
O        O      0.881366666667     0.666666666667     0.000000000000     0          
T        Si     0.666733333333     0.741966666667     0.302600000000     0          
T        Si     0.853033333333     0.964333333333     0.030300000000     0          
T        Si     0.888933333333     0.702700000000     0.863900000000     0          
O        O      0.991366666667     0.769000000000     0.666400000000     0          
O        O      0.804033333333     0.778233333333     0.916800000000     0          
T        Si     0.999933333333     0.741900000000     0.697400000000     0          
T        Si     0.813633333333     0.777966666667     0.969700000000     0          
T        Si     0.777733333333     0.813766666667     0.136100000000     0          
O        O      0.889033333333     0.991366666667     0.166400000000     0          
O        O      0.692466666667     0.804033333333     0.416800000000     0          
T        Si     0.924700000000     0.999933333333     0.197400000000     0          
T        Si     0.702333333333     0.813633333333     0.469700000000     0          
T        Si     0.963966666667     0.777733333333     0.636100000000     0          
O        O      0.897666666667     0.889033333333     0.666400000000     0          
O        O      0.888433333333     0.692466666667     0.916800000000     0          
T        Si     0.924766666667     0.924700000000     0.697400000000     0          
T        Si     0.888700000000     0.702333333333     0.969700000000     0          
T        Si     0.852900000000     0.963966666667     0.136100000000     0          
O        O      0.675300000000     0.897666666667     0.166400000000     0          
O        O      0.862633333333     0.888433333333     0.416800000000     0          
T        Si     0.666733333333     0.924766666667     0.197400000000     0          
T        Si     0.853033333333     0.888700000000     0.469700000000     0          
T        Si     0.888933333333     0.852900000000     0.636100000000     0          
O        O      0.777633333333     0.675300000000     0.666400000000     0          
O        O      0.974200000000     0.862633333333     0.916800000000     0          
T        Si     0.741966666667     0.666733333333     0.697400000000     0          
T        Si     0.964333333333     0.853033333333     0.969700000000     0          
T        Si     0.702700000000     0.888933333333     0.136100000000     0          
O        O      0.769000000000     0.777633333333     0.166400000000     0          
O        O      0.778233333333     0.974200000000     0.416800000000     0          
T        Si     0.741900000000     0.741966666667     0.197400000000     0          
T        Si     0.777966666667     0.964333333333     0.469700000000     0          
T        Si     0.813766666667     0.702700000000     0.636100000000     0          


