data_zeolite

_audit_creation_method RASPA-1.0
_audit_creation_date 2021-1-30
_audit_author_name ''

_cell_length_a    41.8554
_cell_length_b    35.4056
_cell_length_c    30.3508
_cell_angle_alpha 90
_cell_angle_beta  90
_cell_angle_gamma 90
_cell_volume      44977.3

_symmetry_cell_setting          orthorhombic
_symmetry_space_group_name_Hall 'P 1'
_symmetry_space_group_name_H-M  'P 1'
_symmetry_Int_Tables_number     1

_symmetry_equiv_pos_as_xyz 'x,y,z'

loop_
_atom_site_label
_atom_site_type_symbol
_atom_site_fract_x
_atom_site_fract_y
_atom_site_fract_z
_atom_site_charge
Si       Si     0.134470000000     0.043220000000     0.074835000000     0          
Si       Si     0.060360000000     0.043150000000     0.074832500000     0          
Si       Si     0.094725000000     0.152890000000     0.000000000000     0          
Si       Si     0.035710000000     0.096090000000     0.000000000000     0          
O        O      0.097405000000     0.055070000000     0.071910000000     0          
O        O      0.154765000000     0.070730000000     0.043227500000     0          
O        O      0.138665000000     0.000000000000     0.059367500000     0          
O        O      0.146470000000     0.047590000000     0.125000000000     0          
O        O      0.056295000000     0.000000000000     0.059070000000     0          
O        O      0.048320000000     0.047250000000     0.125000000000     0          
O        O      0.039690000000     0.070360000000     0.043365000000     0          
O        O      0.125000000000     0.125000000000     0.000000000000     0          
O        O      0.061825000000     0.129385000000     0.000000000000     0          
O        O      0.000000000000     0.113150000000     0.000000000000     0          
Si       Si     0.365530000000     0.456780000000     0.074835000000     0          
Si       Si     0.439640000000     0.456850000000     0.074832500000     0          
Si       Si     0.405275000000     0.347110000000     0.000000000000     0          
Si       Si     0.464290000000     0.403910000000     0.000000000000     0          
O        O      0.402595000000     0.444930000000     0.071910000000     0          
O        O      0.345235000000     0.429270000000     0.043227500000     0          
O        O      0.361335000000     0.000000000000     0.059367500000     0          
O        O      0.353530000000     0.452410000000     0.125000000000     0          
O        O      0.443705000000     0.000000000000     0.059070000000     0          
O        O      0.451680000000     0.452750000000     0.125000000000     0          
O        O      0.460310000000     0.429640000000     0.043365000000     0          
O        O      0.375000000000     0.375000000000     0.000000000000     0          
O        O      0.438175000000     0.370615000000     0.000000000000     0          
O        O      0.000000000000     0.386850000000     0.000000000000     0          
Si       Si     0.134470000000     0.456780000000     0.175165000000     0          
Si       Si     0.060360000000     0.456850000000     0.175167500000     0          
Si       Si     0.094725000000     0.347110000000     0.000000000000     0          
Si       Si     0.035710000000     0.403910000000     0.000000000000     0          
O        O      0.097405000000     0.444930000000     0.178090000000     0          
O        O      0.154765000000     0.429270000000     0.206772500000     0          
O        O      0.138665000000     0.000000000000     0.190632500000     0          
O        O      0.146470000000     0.452410000000     0.125000000000     0          
O        O      0.056295000000     0.000000000000     0.190930000000     0          
O        O      0.048320000000     0.452750000000     0.125000000000     0          
O        O      0.039690000000     0.429640000000     0.206635000000     0          
O        O      0.125000000000     0.375000000000     0.000000000000     0          
O        O      0.061825000000     0.370615000000     0.000000000000     0          
Si       Si     0.365530000000     0.043220000000     0.175165000000     0          
Si       Si     0.439640000000     0.043150000000     0.175167500000     0          
Si       Si     0.405275000000     0.152890000000     0.000000000000     0          
Si       Si     0.464290000000     0.096090000000     0.000000000000     0          
O        O      0.402595000000     0.055070000000     0.178090000000     0          
O        O      0.345235000000     0.070730000000     0.206772500000     0          
O        O      0.361335000000     0.000000000000     0.190632500000     0          
O        O      0.353530000000     0.047590000000     0.125000000000     0          
O        O      0.443705000000     0.000000000000     0.190930000000     0          
O        O      0.451680000000     0.047250000000     0.125000000000     0          
O        O      0.460310000000     0.070360000000     0.206635000000     0          
O        O      0.375000000000     0.125000000000     0.000000000000     0          
O        O      0.438175000000     0.129385000000     0.000000000000     0          
Si       Si     0.365530000000     0.456780000000     0.175165000000     0          
Si       Si     0.439640000000     0.456850000000     0.175167500000     0          
O        O      0.402595000000     0.444930000000     0.178090000000     0          
O        O      0.345235000000     0.429270000000     0.206772500000     0          
O        O      0.460310000000     0.429640000000     0.206635000000     0          
Si       Si     0.134470000000     0.043220000000     0.175165000000     0          
Si       Si     0.060360000000     0.043150000000     0.175167500000     0          
O        O      0.097405000000     0.055070000000     0.178090000000     0          
O        O      0.154765000000     0.070730000000     0.206772500000     0          
O        O      0.039690000000     0.070360000000     0.206635000000     0          
Si       Si     0.365530000000     0.043220000000     0.074835000000     0          
Si       Si     0.439640000000     0.043150000000     0.074832500000     0          
O        O      0.402595000000     0.055070000000     0.071910000000     0          
O        O      0.345235000000     0.070730000000     0.043227500000     0          
O        O      0.460310000000     0.070360000000     0.043365000000     0          
Si       Si     0.134470000000     0.456780000000     0.074835000000     0          
Si       Si     0.060360000000     0.456850000000     0.074832500000     0          
O        O      0.097405000000     0.444930000000     0.071910000000     0          
O        O      0.154765000000     0.429270000000     0.043227500000     0          
O        O      0.039690000000     0.429640000000     0.043365000000     0          
Si       Si     0.384470000000     0.293220000000     0.074835000000     0          
Si       Si     0.310360000000     0.293150000000     0.074832500000     0          
Si       Si     0.344725000000     0.402890000000     0.000000000000     0          
Si       Si     0.285710000000     0.346090000000     0.000000000000     0          
O        O      0.347405000000     0.305070000000     0.071910000000     0          
O        O      0.404765000000     0.320730000000     0.043227500000     0          
O        O      0.388665000000     0.250000000000     0.059367500000     0          
O        O      0.396470000000     0.297590000000     0.125000000000     0          
O        O      0.306295000000     0.250000000000     0.059070000000     0          
O        O      0.298320000000     0.297250000000     0.125000000000     0          
O        O      0.289690000000     0.320360000000     0.043365000000     0          
O        O      0.311825000000     0.379385000000     0.000000000000     0          
O        O      0.250000000000     0.363150000000     0.000000000000     0          
Si       Si     0.115530000000     0.206780000000     0.074835000000     0          
Si       Si     0.189640000000     0.206850000000     0.074832500000     0          
Si       Si     0.155275000000     0.097110000000     0.000000000000     0          
Si       Si     0.214290000000     0.153910000000     0.000000000000     0          
O        O      0.152595000000     0.194930000000     0.071910000000     0          
O        O      0.095235000000     0.179270000000     0.043227500000     0          
O        O      0.111335000000     0.250000000000     0.059367500000     0          
O        O      0.103530000000     0.202410000000     0.125000000000     0          
O        O      0.193705000000     0.250000000000     0.059070000000     0          
O        O      0.201680000000     0.202750000000     0.125000000000     0          
O        O      0.210310000000     0.179640000000     0.043365000000     0          
O        O      0.188175000000     0.120615000000     0.000000000000     0          
O        O      0.250000000000     0.136850000000     0.000000000000     0          
Si       Si     0.384470000000     0.206780000000     0.175165000000     0          
Si       Si     0.310360000000     0.206850000000     0.175167500000     0          
Si       Si     0.344725000000     0.097110000000     0.000000000000     0          
Si       Si     0.285710000000     0.153910000000     0.000000000000     0          
O        O      0.347405000000     0.194930000000     0.178090000000     0          
O        O      0.404765000000     0.179270000000     0.206772500000     0          
O        O      0.388665000000     0.250000000000     0.190632500000     0          
O        O      0.396470000000     0.202410000000     0.125000000000     0          
O        O      0.306295000000     0.250000000000     0.190930000000     0          
O        O      0.298320000000     0.202750000000     0.125000000000     0          
O        O      0.289690000000     0.179640000000     0.206635000000     0          
O        O      0.311825000000     0.120615000000     0.000000000000     0          
Si       Si     0.115530000000     0.293220000000     0.175165000000     0          
Si       Si     0.189640000000     0.293150000000     0.175167500000     0          
Si       Si     0.155275000000     0.402890000000     0.000000000000     0          
Si       Si     0.214290000000     0.346090000000     0.000000000000     0          
O        O      0.152595000000     0.305070000000     0.178090000000     0          
O        O      0.095235000000     0.320730000000     0.206772500000     0          
O        O      0.111335000000     0.250000000000     0.190632500000     0          
O        O      0.103530000000     0.297590000000     0.125000000000     0          
O        O      0.193705000000     0.250000000000     0.190930000000     0          
O        O      0.201680000000     0.297250000000     0.125000000000     0          
O        O      0.210310000000     0.320360000000     0.206635000000     0          
O        O      0.188175000000     0.379385000000     0.000000000000     0          
Si       Si     0.115530000000     0.206780000000     0.175165000000     0          
Si       Si     0.189640000000     0.206850000000     0.175167500000     0          
O        O      0.152595000000     0.194930000000     0.178090000000     0          
O        O      0.095235000000     0.179270000000     0.206772500000     0          
O        O      0.210310000000     0.179640000000     0.206635000000     0          
Si       Si     0.384470000000     0.293220000000     0.175165000000     0          
Si       Si     0.310360000000     0.293150000000     0.175167500000     0          
O        O      0.347405000000     0.305070000000     0.178090000000     0          
O        O      0.404765000000     0.320730000000     0.206772500000     0          
O        O      0.289690000000     0.320360000000     0.206635000000     0          
Si       Si     0.115530000000     0.293220000000     0.074835000000     0          
Si       Si     0.189640000000     0.293150000000     0.074832500000     0          
O        O      0.152595000000     0.305070000000     0.071910000000     0          
O        O      0.095235000000     0.320730000000     0.043227500000     0          
O        O      0.210310000000     0.320360000000     0.043365000000     0          
Si       Si     0.384470000000     0.206780000000     0.074835000000     0          
Si       Si     0.310360000000     0.206850000000     0.074832500000     0          
O        O      0.347405000000     0.194930000000     0.071910000000     0          
O        O      0.404765000000     0.179270000000     0.043227500000     0          
O        O      0.289690000000     0.179640000000     0.043365000000     0          
Si       Si     0.134470000000     0.043220000000     0.324835000000     0          
Si       Si     0.060360000000     0.043150000000     0.324832500000     0          
Si       Si     0.094725000000     0.152890000000     0.250000000000     0          
Si       Si     0.035710000000     0.096090000000     0.250000000000     0          
O        O      0.097405000000     0.055070000000     0.321910000000     0          
O        O      0.154765000000     0.070730000000     0.293227500000     0          
O        O      0.138665000000     0.000000000000     0.309367500000     0          
O        O      0.146470000000     0.047590000000     0.375000000000     0          
O        O      0.056295000000     0.000000000000     0.309070000000     0          
O        O      0.048320000000     0.047250000000     0.375000000000     0          
O        O      0.039690000000     0.070360000000     0.293365000000     0          
O        O      0.125000000000     0.125000000000     0.250000000000     0          
O        O      0.061825000000     0.129385000000     0.250000000000     0          
O        O      0.000000000000     0.113150000000     0.250000000000     0          
Si       Si     0.365530000000     0.456780000000     0.324835000000     0          
Si       Si     0.439640000000     0.456850000000     0.324832500000     0          
Si       Si     0.405275000000     0.347110000000     0.250000000000     0          
Si       Si     0.464290000000     0.403910000000     0.250000000000     0          
O        O      0.402595000000     0.444930000000     0.321910000000     0          
O        O      0.345235000000     0.429270000000     0.293227500000     0          
O        O      0.361335000000     0.000000000000     0.309367500000     0          
O        O      0.353530000000     0.452410000000     0.375000000000     0          
O        O      0.443705000000     0.000000000000     0.309070000000     0          
O        O      0.451680000000     0.452750000000     0.375000000000     0          
O        O      0.460310000000     0.429640000000     0.293365000000     0          
O        O      0.375000000000     0.375000000000     0.250000000000     0          
O        O      0.438175000000     0.370615000000     0.250000000000     0          
O        O      0.000000000000     0.386850000000     0.250000000000     0          
Si       Si     0.134470000000     0.456780000000     0.425165000000     0          
Si       Si     0.060360000000     0.456850000000     0.425167500000     0          
Si       Si     0.094725000000     0.347110000000     0.250000000000     0          
Si       Si     0.035710000000     0.403910000000     0.250000000000     0          
O        O      0.097405000000     0.444930000000     0.428090000000     0          
O        O      0.154765000000     0.429270000000     0.456772500000     0          
O        O      0.138665000000     0.000000000000     0.440632500000     0          
O        O      0.146470000000     0.452410000000     0.375000000000     0          
O        O      0.056295000000     0.000000000000     0.440930000000     0          
O        O      0.048320000000     0.452750000000     0.375000000000     0          
O        O      0.039690000000     0.429640000000     0.456635000000     0          
O        O      0.125000000000     0.375000000000     0.250000000000     0          
O        O      0.061825000000     0.370615000000     0.250000000000     0          
Si       Si     0.365530000000     0.043220000000     0.425165000000     0          
Si       Si     0.439640000000     0.043150000000     0.425167500000     0          
Si       Si     0.405275000000     0.152890000000     0.250000000000     0          
Si       Si     0.464290000000     0.096090000000     0.250000000000     0          
O        O      0.402595000000     0.055070000000     0.428090000000     0          
O        O      0.345235000000     0.070730000000     0.456772500000     0          
O        O      0.361335000000     0.000000000000     0.440632500000     0          
O        O      0.353530000000     0.047590000000     0.375000000000     0          
O        O      0.443705000000     0.000000000000     0.440930000000     0          
O        O      0.451680000000     0.047250000000     0.375000000000     0          
O        O      0.460310000000     0.070360000000     0.456635000000     0          
O        O      0.375000000000     0.125000000000     0.250000000000     0          
O        O      0.438175000000     0.129385000000     0.250000000000     0          
Si       Si     0.365530000000     0.456780000000     0.425165000000     0          
Si       Si     0.439640000000     0.456850000000     0.425167500000     0          
O        O      0.402595000000     0.444930000000     0.428090000000     0          
O        O      0.345235000000     0.429270000000     0.456772500000     0          
O        O      0.460310000000     0.429640000000     0.456635000000     0          
Si       Si     0.134470000000     0.043220000000     0.425165000000     0          
Si       Si     0.060360000000     0.043150000000     0.425167500000     0          
O        O      0.097405000000     0.055070000000     0.428090000000     0          
O        O      0.154765000000     0.070730000000     0.456772500000     0          
O        O      0.039690000000     0.070360000000     0.456635000000     0          
Si       Si     0.365530000000     0.043220000000     0.324835000000     0          
Si       Si     0.439640000000     0.043150000000     0.324832500000     0          
O        O      0.402595000000     0.055070000000     0.321910000000     0          
O        O      0.345235000000     0.070730000000     0.293227500000     0          
O        O      0.460310000000     0.070360000000     0.293365000000     0          
Si       Si     0.134470000000     0.456780000000     0.324835000000     0          
Si       Si     0.060360000000     0.456850000000     0.324832500000     0          
O        O      0.097405000000     0.444930000000     0.321910000000     0          
O        O      0.154765000000     0.429270000000     0.293227500000     0          
O        O      0.039690000000     0.429640000000     0.293365000000     0          
Si       Si     0.384470000000     0.293220000000     0.324835000000     0          
Si       Si     0.310360000000     0.293150000000     0.324832500000     0          
Si       Si     0.344725000000     0.402890000000     0.250000000000     0          
Si       Si     0.285710000000     0.346090000000     0.250000000000     0          
O        O      0.347405000000     0.305070000000     0.321910000000     0          
O        O      0.404765000000     0.320730000000     0.293227500000     0          
O        O      0.388665000000     0.250000000000     0.309367500000     0          
O        O      0.396470000000     0.297590000000     0.375000000000     0          
O        O      0.306295000000     0.250000000000     0.309070000000     0          
O        O      0.298320000000     0.297250000000     0.375000000000     0          
O        O      0.289690000000     0.320360000000     0.293365000000     0          
O        O      0.311825000000     0.379385000000     0.250000000000     0          
O        O      0.250000000000     0.363150000000     0.250000000000     0          
Si       Si     0.115530000000     0.206780000000     0.324835000000     0          
Si       Si     0.189640000000     0.206850000000     0.324832500000     0          
Si       Si     0.155275000000     0.097110000000     0.250000000000     0          
Si       Si     0.214290000000     0.153910000000     0.250000000000     0          
O        O      0.152595000000     0.194930000000     0.321910000000     0          
O        O      0.095235000000     0.179270000000     0.293227500000     0          
O        O      0.111335000000     0.250000000000     0.309367500000     0          
O        O      0.103530000000     0.202410000000     0.375000000000     0          
O        O      0.193705000000     0.250000000000     0.309070000000     0          
O        O      0.201680000000     0.202750000000     0.375000000000     0          
O        O      0.210310000000     0.179640000000     0.293365000000     0          
O        O      0.188175000000     0.120615000000     0.250000000000     0          
O        O      0.250000000000     0.136850000000     0.250000000000     0          
Si       Si     0.384470000000     0.206780000000     0.425165000000     0          
Si       Si     0.310360000000     0.206850000000     0.425167500000     0          
Si       Si     0.344725000000     0.097110000000     0.250000000000     0          
Si       Si     0.285710000000     0.153910000000     0.250000000000     0          
O        O      0.347405000000     0.194930000000     0.428090000000     0          
O        O      0.404765000000     0.179270000000     0.456772500000     0          
O        O      0.388665000000     0.250000000000     0.440632500000     0          
O        O      0.396470000000     0.202410000000     0.375000000000     0          
O        O      0.306295000000     0.250000000000     0.440930000000     0          
O        O      0.298320000000     0.202750000000     0.375000000000     0          
O        O      0.289690000000     0.179640000000     0.456635000000     0          
O        O      0.311825000000     0.120615000000     0.250000000000     0          
Si       Si     0.115530000000     0.293220000000     0.425165000000     0          
Si       Si     0.189640000000     0.293150000000     0.425167500000     0          
Si       Si     0.155275000000     0.402890000000     0.250000000000     0          
Si       Si     0.214290000000     0.346090000000     0.250000000000     0          
O        O      0.152595000000     0.305070000000     0.428090000000     0          
O        O      0.095235000000     0.320730000000     0.456772500000     0          
O        O      0.111335000000     0.250000000000     0.440632500000     0          
O        O      0.103530000000     0.297590000000     0.375000000000     0          
O        O      0.193705000000     0.250000000000     0.440930000000     0          
O        O      0.201680000000     0.297250000000     0.375000000000     0          
O        O      0.210310000000     0.320360000000     0.456635000000     0          
O        O      0.188175000000     0.379385000000     0.250000000000     0          
Si       Si     0.115530000000     0.206780000000     0.425165000000     0          
Si       Si     0.189640000000     0.206850000000     0.425167500000     0          
O        O      0.152595000000     0.194930000000     0.428090000000     0          
O        O      0.095235000000     0.179270000000     0.456772500000     0          
O        O      0.210310000000     0.179640000000     0.456635000000     0          
Si       Si     0.384470000000     0.293220000000     0.425165000000     0          
Si       Si     0.310360000000     0.293150000000     0.425167500000     0          
O        O      0.347405000000     0.305070000000     0.428090000000     0          
O        O      0.404765000000     0.320730000000     0.456772500000     0          
O        O      0.289690000000     0.320360000000     0.456635000000     0          
Si       Si     0.115530000000     0.293220000000     0.324835000000     0          
Si       Si     0.189640000000     0.293150000000     0.324832500000     0          
O        O      0.152595000000     0.305070000000     0.321910000000     0          
O        O      0.095235000000     0.320730000000     0.293227500000     0          
O        O      0.210310000000     0.320360000000     0.293365000000     0          
Si       Si     0.384470000000     0.206780000000     0.324835000000     0          
Si       Si     0.310360000000     0.206850000000     0.324832500000     0          
O        O      0.347405000000     0.194930000000     0.321910000000     0          
O        O      0.404765000000     0.179270000000     0.293227500000     0          
O        O      0.289690000000     0.179640000000     0.293365000000     0          
Si       Si     0.134470000000     0.043220000000     0.574835000000     0          
Si       Si     0.060360000000     0.043150000000     0.574832500000     0          
Si       Si     0.094725000000     0.152890000000     0.500000000000     0          
Si       Si     0.035710000000     0.096090000000     0.500000000000     0          
O        O      0.097405000000     0.055070000000     0.571910000000     0          
O        O      0.154765000000     0.070730000000     0.543227500000     0          
O        O      0.138665000000     0.000000000000     0.559367500000     0          
O        O      0.146470000000     0.047590000000     0.625000000000     0          
O        O      0.056295000000     0.000000000000     0.559070000000     0          
O        O      0.048320000000     0.047250000000     0.625000000000     0          
O        O      0.039690000000     0.070360000000     0.543365000000     0          
O        O      0.125000000000     0.125000000000     0.500000000000     0          
O        O      0.061825000000     0.129385000000     0.500000000000     0          
O        O      0.000000000000     0.113150000000     0.500000000000     0          
Si       Si     0.365530000000     0.456780000000     0.574835000000     0          
Si       Si     0.439640000000     0.456850000000     0.574832500000     0          
Si       Si     0.405275000000     0.347110000000     0.500000000000     0          
Si       Si     0.464290000000     0.403910000000     0.500000000000     0          
O        O      0.402595000000     0.444930000000     0.571910000000     0          
O        O      0.345235000000     0.429270000000     0.543227500000     0          
O        O      0.361335000000     0.000000000000     0.559367500000     0          
O        O      0.353530000000     0.452410000000     0.625000000000     0          
O        O      0.443705000000     0.000000000000     0.559070000000     0          
O        O      0.451680000000     0.452750000000     0.625000000000     0          
O        O      0.460310000000     0.429640000000     0.543365000000     0          
O        O      0.375000000000     0.375000000000     0.500000000000     0          
O        O      0.438175000000     0.370615000000     0.500000000000     0          
O        O      0.000000000000     0.386850000000     0.500000000000     0          
Si       Si     0.134470000000     0.456780000000     0.675165000000     0          
Si       Si     0.060360000000     0.456850000000     0.675167500000     0          
Si       Si     0.094725000000     0.347110000000     0.500000000000     0          
Si       Si     0.035710000000     0.403910000000     0.500000000000     0          
O        O      0.097405000000     0.444930000000     0.678090000000     0          
O        O      0.154765000000     0.429270000000     0.706772500000     0          
O        O      0.138665000000     0.000000000000     0.690632500000     0          
O        O      0.146470000000     0.452410000000     0.625000000000     0          
O        O      0.056295000000     0.000000000000     0.690930000000     0          
O        O      0.048320000000     0.452750000000     0.625000000000     0          
O        O      0.039690000000     0.429640000000     0.706635000000     0          
O        O      0.125000000000     0.375000000000     0.500000000000     0          
O        O      0.061825000000     0.370615000000     0.500000000000     0          
Si       Si     0.365530000000     0.043220000000     0.675165000000     0          
Si       Si     0.439640000000     0.043150000000     0.675167500000     0          
Si       Si     0.405275000000     0.152890000000     0.500000000000     0          
Si       Si     0.464290000000     0.096090000000     0.500000000000     0          
O        O      0.402595000000     0.055070000000     0.678090000000     0          
O        O      0.345235000000     0.070730000000     0.706772500000     0          
O        O      0.361335000000     0.000000000000     0.690632500000     0          
O        O      0.353530000000     0.047590000000     0.625000000000     0          
O        O      0.443705000000     0.000000000000     0.690930000000     0          
O        O      0.451680000000     0.047250000000     0.625000000000     0          
O        O      0.460310000000     0.070360000000     0.706635000000     0          
O        O      0.375000000000     0.125000000000     0.500000000000     0          
O        O      0.438175000000     0.129385000000     0.500000000000     0          
Si       Si     0.365530000000     0.456780000000     0.675165000000     0          
Si       Si     0.439640000000     0.456850000000     0.675167500000     0          
O        O      0.402595000000     0.444930000000     0.678090000000     0          
O        O      0.345235000000     0.429270000000     0.706772500000     0          
O        O      0.460310000000     0.429640000000     0.706635000000     0          
Si       Si     0.134470000000     0.043220000000     0.675165000000     0          
Si       Si     0.060360000000     0.043150000000     0.675167500000     0          
O        O      0.097405000000     0.055070000000     0.678090000000     0          
O        O      0.154765000000     0.070730000000     0.706772500000     0          
O        O      0.039690000000     0.070360000000     0.706635000000     0          
Si       Si     0.365530000000     0.043220000000     0.574835000000     0          
Si       Si     0.439640000000     0.043150000000     0.574832500000     0          
O        O      0.402595000000     0.055070000000     0.571910000000     0          
O        O      0.345235000000     0.070730000000     0.543227500000     0          
O        O      0.460310000000     0.070360000000     0.543365000000     0          
Si       Si     0.134470000000     0.456780000000     0.574835000000     0          
Si       Si     0.060360000000     0.456850000000     0.574832500000     0          
O        O      0.097405000000     0.444930000000     0.571910000000     0          
O        O      0.154765000000     0.429270000000     0.543227500000     0          
O        O      0.039690000000     0.429640000000     0.543365000000     0          
Si       Si     0.384470000000     0.293220000000     0.574835000000     0          
Si       Si     0.310360000000     0.293150000000     0.574832500000     0          
Si       Si     0.344725000000     0.402890000000     0.500000000000     0          
Si       Si     0.285710000000     0.346090000000     0.500000000000     0          
O        O      0.347405000000     0.305070000000     0.571910000000     0          
O        O      0.404765000000     0.320730000000     0.543227500000     0          
O        O      0.388665000000     0.250000000000     0.559367500000     0          
O        O      0.396470000000     0.297590000000     0.625000000000     0          
O        O      0.306295000000     0.250000000000     0.559070000000     0          
O        O      0.298320000000     0.297250000000     0.625000000000     0          
O        O      0.289690000000     0.320360000000     0.543365000000     0          
O        O      0.311825000000     0.379385000000     0.500000000000     0          
O        O      0.250000000000     0.363150000000     0.500000000000     0          
Si       Si     0.115530000000     0.206780000000     0.574835000000     0          
Si       Si     0.189640000000     0.206850000000     0.574832500000     0          
Si       Si     0.155275000000     0.097110000000     0.500000000000     0          
Si       Si     0.214290000000     0.153910000000     0.500000000000     0          
O        O      0.152595000000     0.194930000000     0.571910000000     0          
O        O      0.095235000000     0.179270000000     0.543227500000     0          
O        O      0.111335000000     0.250000000000     0.559367500000     0          
O        O      0.103530000000     0.202410000000     0.625000000000     0          
O        O      0.193705000000     0.250000000000     0.559070000000     0          
O        O      0.201680000000     0.202750000000     0.625000000000     0          
O        O      0.210310000000     0.179640000000     0.543365000000     0          
O        O      0.188175000000     0.120615000000     0.500000000000     0          
O        O      0.250000000000     0.136850000000     0.500000000000     0          
Si       Si     0.384470000000     0.206780000000     0.675165000000     0          
Si       Si     0.310360000000     0.206850000000     0.675167500000     0          
Si       Si     0.344725000000     0.097110000000     0.500000000000     0          
Si       Si     0.285710000000     0.153910000000     0.500000000000     0          
O        O      0.347405000000     0.194930000000     0.678090000000     0          
O        O      0.404765000000     0.179270000000     0.706772500000     0          
O        O      0.388665000000     0.250000000000     0.690632500000     0          
O        O      0.396470000000     0.202410000000     0.625000000000     0          
O        O      0.306295000000     0.250000000000     0.690930000000     0          
O        O      0.298320000000     0.202750000000     0.625000000000     0          
O        O      0.289690000000     0.179640000000     0.706635000000     0          
O        O      0.311825000000     0.120615000000     0.500000000000     0          
Si       Si     0.115530000000     0.293220000000     0.675165000000     0          
Si       Si     0.189640000000     0.293150000000     0.675167500000     0          
Si       Si     0.155275000000     0.402890000000     0.500000000000     0          
Si       Si     0.214290000000     0.346090000000     0.500000000000     0          
O        O      0.152595000000     0.305070000000     0.678090000000     0          
O        O      0.095235000000     0.320730000000     0.706772500000     0          
O        O      0.111335000000     0.250000000000     0.690632500000     0          
O        O      0.103530000000     0.297590000000     0.625000000000     0          
O        O      0.193705000000     0.250000000000     0.690930000000     0          
O        O      0.201680000000     0.297250000000     0.625000000000     0          
O        O      0.210310000000     0.320360000000     0.706635000000     0          
O        O      0.188175000000     0.379385000000     0.500000000000     0          
Si       Si     0.115530000000     0.206780000000     0.675165000000     0          
Si       Si     0.189640000000     0.206850000000     0.675167500000     0          
O        O      0.152595000000     0.194930000000     0.678090000000     0          
O        O      0.095235000000     0.179270000000     0.706772500000     0          
O        O      0.210310000000     0.179640000000     0.706635000000     0          
Si       Si     0.384470000000     0.293220000000     0.675165000000     0          
Si       Si     0.310360000000     0.293150000000     0.675167500000     0          
O        O      0.347405000000     0.305070000000     0.678090000000     0          
O        O      0.404765000000     0.320730000000     0.706772500000     0          
O        O      0.289690000000     0.320360000000     0.706635000000     0          
Si       Si     0.115530000000     0.293220000000     0.574835000000     0          
Si       Si     0.189640000000     0.293150000000     0.574832500000     0          
O        O      0.152595000000     0.305070000000     0.571910000000     0          
O        O      0.095235000000     0.320730000000     0.543227500000     0          
O        O      0.210310000000     0.320360000000     0.543365000000     0          
Si       Si     0.384470000000     0.206780000000     0.574835000000     0          
Si       Si     0.310360000000     0.206850000000     0.574832500000     0          
O        O      0.347405000000     0.194930000000     0.571910000000     0          
O        O      0.404765000000     0.179270000000     0.543227500000     0          
O        O      0.289690000000     0.179640000000     0.543365000000     0          
Si       Si     0.134470000000     0.043220000000     0.824835000000     0          
Si       Si     0.060360000000     0.043150000000     0.824832500000     0          
Si       Si     0.094725000000     0.152890000000     0.750000000000     0          
Si       Si     0.035710000000     0.096090000000     0.750000000000     0          
O        O      0.097405000000     0.055070000000     0.821910000000     0          
O        O      0.154765000000     0.070730000000     0.793227500000     0          
O        O      0.138665000000     0.000000000000     0.809367500000     0          
O        O      0.146470000000     0.047590000000     0.875000000000     0          
O        O      0.056295000000     0.000000000000     0.809070000000     0          
O        O      0.048320000000     0.047250000000     0.875000000000     0          
O        O      0.039690000000     0.070360000000     0.793365000000     0          
O        O      0.125000000000     0.125000000000     0.750000000000     0          
O        O      0.061825000000     0.129385000000     0.750000000000     0          
O        O      0.000000000000     0.113150000000     0.750000000000     0          
Si       Si     0.365530000000     0.456780000000     0.824835000000     0          
Si       Si     0.439640000000     0.456850000000     0.824832500000     0          
Si       Si     0.405275000000     0.347110000000     0.750000000000     0          
Si       Si     0.464290000000     0.403910000000     0.750000000000     0          
O        O      0.402595000000     0.444930000000     0.821910000000     0          
O        O      0.345235000000     0.429270000000     0.793227500000     0          
O        O      0.361335000000     0.000000000000     0.809367500000     0          
O        O      0.353530000000     0.452410000000     0.875000000000     0          
O        O      0.443705000000     0.000000000000     0.809070000000     0          
O        O      0.451680000000     0.452750000000     0.875000000000     0          
O        O      0.460310000000     0.429640000000     0.793365000000     0          
O        O      0.375000000000     0.375000000000     0.750000000000     0          
O        O      0.438175000000     0.370615000000     0.750000000000     0          
O        O      0.000000000000     0.386850000000     0.750000000000     0          
Si       Si     0.134470000000     0.456780000000     0.925165000000     0          
Si       Si     0.060360000000     0.456850000000     0.925167500000     0          
Si       Si     0.094725000000     0.347110000000     0.750000000000     0          
Si       Si     0.035710000000     0.403910000000     0.750000000000     0          
O        O      0.097405000000     0.444930000000     0.928090000000     0          
O        O      0.154765000000     0.429270000000     0.956772500000     0          
O        O      0.138665000000     0.000000000000     0.940632500000     0          
O        O      0.146470000000     0.452410000000     0.875000000000     0          
O        O      0.056295000000     0.000000000000     0.940930000000     0          
O        O      0.048320000000     0.452750000000     0.875000000000     0          
O        O      0.039690000000     0.429640000000     0.956635000000     0          
O        O      0.125000000000     0.375000000000     0.750000000000     0          
O        O      0.061825000000     0.370615000000     0.750000000000     0          
Si       Si     0.365530000000     0.043220000000     0.925165000000     0          
Si       Si     0.439640000000     0.043150000000     0.925167500000     0          
Si       Si     0.405275000000     0.152890000000     0.750000000000     0          
Si       Si     0.464290000000     0.096090000000     0.750000000000     0          
O        O      0.402595000000     0.055070000000     0.928090000000     0          
O        O      0.345235000000     0.070730000000     0.956772500000     0          
O        O      0.361335000000     0.000000000000     0.940632500000     0          
O        O      0.353530000000     0.047590000000     0.875000000000     0          
O        O      0.443705000000     0.000000000000     0.940930000000     0          
O        O      0.451680000000     0.047250000000     0.875000000000     0          
O        O      0.460310000000     0.070360000000     0.956635000000     0          
O        O      0.375000000000     0.125000000000     0.750000000000     0          
O        O      0.438175000000     0.129385000000     0.750000000000     0          
Si       Si     0.365530000000     0.456780000000     0.925165000000     0          
Si       Si     0.439640000000     0.456850000000     0.925167500000     0          
O        O      0.402595000000     0.444930000000     0.928090000000     0          
O        O      0.345235000000     0.429270000000     0.956772500000     0          
O        O      0.460310000000     0.429640000000     0.956635000000     0          
Si       Si     0.134470000000     0.043220000000     0.925165000000     0          
Si       Si     0.060360000000     0.043150000000     0.925167500000     0          
O        O      0.097405000000     0.055070000000     0.928090000000     0          
O        O      0.154765000000     0.070730000000     0.956772500000     0          
O        O      0.039690000000     0.070360000000     0.956635000000     0          
Si       Si     0.365530000000     0.043220000000     0.824835000000     0          
Si       Si     0.439640000000     0.043150000000     0.824832500000     0          
O        O      0.402595000000     0.055070000000     0.821910000000     0          
O        O      0.345235000000     0.070730000000     0.793227500000     0          
O        O      0.460310000000     0.070360000000     0.793365000000     0          
Si       Si     0.134470000000     0.456780000000     0.824835000000     0          
Si       Si     0.060360000000     0.456850000000     0.824832500000     0          
O        O      0.097405000000     0.444930000000     0.821910000000     0          
O        O      0.154765000000     0.429270000000     0.793227500000     0          
O        O      0.039690000000     0.429640000000     0.793365000000     0          
Si       Si     0.384470000000     0.293220000000     0.824835000000     0          
Si       Si     0.310360000000     0.293150000000     0.824832500000     0          
Si       Si     0.344725000000     0.402890000000     0.750000000000     0          
Si       Si     0.285710000000     0.346090000000     0.750000000000     0          
O        O      0.347405000000     0.305070000000     0.821910000000     0          
O        O      0.404765000000     0.320730000000     0.793227500000     0          
O        O      0.388665000000     0.250000000000     0.809367500000     0          
O        O      0.396470000000     0.297590000000     0.875000000000     0          
O        O      0.306295000000     0.250000000000     0.809070000000     0          
O        O      0.298320000000     0.297250000000     0.875000000000     0          
O        O      0.289690000000     0.320360000000     0.793365000000     0          
O        O      0.311825000000     0.379385000000     0.750000000000     0          
O        O      0.250000000000     0.363150000000     0.750000000000     0          
Si       Si     0.115530000000     0.206780000000     0.824835000000     0          
Si       Si     0.189640000000     0.206850000000     0.824832500000     0          
Si       Si     0.155275000000     0.097110000000     0.750000000000     0          
Si       Si     0.214290000000     0.153910000000     0.750000000000     0          
O        O      0.152595000000     0.194930000000     0.821910000000     0          
O        O      0.095235000000     0.179270000000     0.793227500000     0          
O        O      0.111335000000     0.250000000000     0.809367500000     0          
O        O      0.103530000000     0.202410000000     0.875000000000     0          
O        O      0.193705000000     0.250000000000     0.809070000000     0          
O        O      0.201680000000     0.202750000000     0.875000000000     0          
O        O      0.210310000000     0.179640000000     0.793365000000     0          
O        O      0.188175000000     0.120615000000     0.750000000000     0          
O        O      0.250000000000     0.136850000000     0.750000000000     0          
Si       Si     0.384470000000     0.206780000000     0.925165000000     0          
Si       Si     0.310360000000     0.206850000000     0.925167500000     0          
Si       Si     0.344725000000     0.097110000000     0.750000000000     0          
Si       Si     0.285710000000     0.153910000000     0.750000000000     0          
O        O      0.347405000000     0.194930000000     0.928090000000     0          
O        O      0.404765000000     0.179270000000     0.956772500000     0          
O        O      0.388665000000     0.250000000000     0.940632500000     0          
O        O      0.396470000000     0.202410000000     0.875000000000     0          
O        O      0.306295000000     0.250000000000     0.940930000000     0          
O        O      0.298320000000     0.202750000000     0.875000000000     0          
O        O      0.289690000000     0.179640000000     0.956635000000     0          
O        O      0.311825000000     0.120615000000     0.750000000000     0          
Si       Si     0.115530000000     0.293220000000     0.925165000000     0          
Si       Si     0.189640000000     0.293150000000     0.925167500000     0          
Si       Si     0.155275000000     0.402890000000     0.750000000000     0          
Si       Si     0.214290000000     0.346090000000     0.750000000000     0          
O        O      0.152595000000     0.305070000000     0.928090000000     0          
O        O      0.095235000000     0.320730000000     0.956772500000     0          
O        O      0.111335000000     0.250000000000     0.940632500000     0          
O        O      0.103530000000     0.297590000000     0.875000000000     0          
O        O      0.193705000000     0.250000000000     0.940930000000     0          
O        O      0.201680000000     0.297250000000     0.875000000000     0          
O        O      0.210310000000     0.320360000000     0.956635000000     0          
O        O      0.188175000000     0.379385000000     0.750000000000     0          
Si       Si     0.115530000000     0.206780000000     0.925165000000     0          
Si       Si     0.189640000000     0.206850000000     0.925167500000     0          
O        O      0.152595000000     0.194930000000     0.928090000000     0          
O        O      0.095235000000     0.179270000000     0.956772500000     0          
O        O      0.210310000000     0.179640000000     0.956635000000     0          
Si       Si     0.384470000000     0.293220000000     0.925165000000     0          
Si       Si     0.310360000000     0.293150000000     0.925167500000     0          
O        O      0.347405000000     0.305070000000     0.928090000000     0          
O        O      0.404765000000     0.320730000000     0.956772500000     0          
O        O      0.289690000000     0.320360000000     0.956635000000     0          
Si       Si     0.115530000000     0.293220000000     0.824835000000     0          
Si       Si     0.189640000000     0.293150000000     0.824832500000     0          
O        O      0.152595000000     0.305070000000     0.821910000000     0          
O        O      0.095235000000     0.320730000000     0.793227500000     0          
O        O      0.210310000000     0.320360000000     0.793365000000     0          
Si       Si     0.384470000000     0.206780000000     0.824835000000     0          
Si       Si     0.310360000000     0.206850000000     0.824832500000     0          
O        O      0.347405000000     0.194930000000     0.821910000000     0          
O        O      0.404765000000     0.179270000000     0.793227500000     0          
O        O      0.289690000000     0.179640000000     0.793365000000     0          
Si       Si     0.134470000000     0.543220000000     0.074835000000     0          
Si       Si     0.060360000000     0.543150000000     0.074832500000     0          
Si       Si     0.094725000000     0.652890000000     0.000000000000     0          
Si       Si     0.035710000000     0.596090000000     0.000000000000     0          
O        O      0.097405000000     0.555070000000     0.071910000000     0          
O        O      0.154765000000     0.570730000000     0.043227500000     0          
O        O      0.138665000000     0.500000000000     0.059367500000     0          
O        O      0.146470000000     0.547590000000     0.125000000000     0          
O        O      0.056295000000     0.500000000000     0.059070000000     0          
O        O      0.048320000000     0.547250000000     0.125000000000     0          
O        O      0.039690000000     0.570360000000     0.043365000000     0          
O        O      0.125000000000     0.625000000000     0.000000000000     0          
O        O      0.061825000000     0.629385000000     0.000000000000     0          
O        O      0.000000000000     0.613150000000     0.000000000000     0          
Si       Si     0.365530000000     0.956780000000     0.074835000000     0          
Si       Si     0.439640000000     0.956850000000     0.074832500000     0          
Si       Si     0.405275000000     0.847110000000     0.000000000000     0          
Si       Si     0.464290000000     0.903910000000     0.000000000000     0          
O        O      0.402595000000     0.944930000000     0.071910000000     0          
O        O      0.345235000000     0.929270000000     0.043227500000     0          
O        O      0.361335000000     0.500000000000     0.059367500000     0          
O        O      0.353530000000     0.952410000000     0.125000000000     0          
O        O      0.443705000000     0.500000000000     0.059070000000     0          
O        O      0.451680000000     0.952750000000     0.125000000000     0          
O        O      0.460310000000     0.929640000000     0.043365000000     0          
O        O      0.375000000000     0.875000000000     0.000000000000     0          
O        O      0.438175000000     0.870615000000     0.000000000000     0          
O        O      0.000000000000     0.886850000000     0.000000000000     0          
Si       Si     0.134470000000     0.956780000000     0.175165000000     0          
Si       Si     0.060360000000     0.956850000000     0.175167500000     0          
Si       Si     0.094725000000     0.847110000000     0.000000000000     0          
Si       Si     0.035710000000     0.903910000000     0.000000000000     0          
O        O      0.097405000000     0.944930000000     0.178090000000     0          
O        O      0.154765000000     0.929270000000     0.206772500000     0          
O        O      0.138665000000     0.500000000000     0.190632500000     0          
O        O      0.146470000000     0.952410000000     0.125000000000     0          
O        O      0.056295000000     0.500000000000     0.190930000000     0          
O        O      0.048320000000     0.952750000000     0.125000000000     0          
O        O      0.039690000000     0.929640000000     0.206635000000     0          
O        O      0.125000000000     0.875000000000     0.000000000000     0          
O        O      0.061825000000     0.870615000000     0.000000000000     0          
Si       Si     0.365530000000     0.543220000000     0.175165000000     0          
Si       Si     0.439640000000     0.543150000000     0.175167500000     0          
Si       Si     0.405275000000     0.652890000000     0.000000000000     0          
Si       Si     0.464290000000     0.596090000000     0.000000000000     0          
O        O      0.402595000000     0.555070000000     0.178090000000     0          
O        O      0.345235000000     0.570730000000     0.206772500000     0          
O        O      0.361335000000     0.500000000000     0.190632500000     0          
O        O      0.353530000000     0.547590000000     0.125000000000     0          
O        O      0.443705000000     0.500000000000     0.190930000000     0          
O        O      0.451680000000     0.547250000000     0.125000000000     0          
O        O      0.460310000000     0.570360000000     0.206635000000     0          
O        O      0.375000000000     0.625000000000     0.000000000000     0          
O        O      0.438175000000     0.629385000000     0.000000000000     0          
Si       Si     0.365530000000     0.956780000000     0.175165000000     0          
Si       Si     0.439640000000     0.956850000000     0.175167500000     0          
O        O      0.402595000000     0.944930000000     0.178090000000     0          
O        O      0.345235000000     0.929270000000     0.206772500000     0          
O        O      0.460310000000     0.929640000000     0.206635000000     0          
Si       Si     0.134470000000     0.543220000000     0.175165000000     0          
Si       Si     0.060360000000     0.543150000000     0.175167500000     0          
O        O      0.097405000000     0.555070000000     0.178090000000     0          
O        O      0.154765000000     0.570730000000     0.206772500000     0          
O        O      0.039690000000     0.570360000000     0.206635000000     0          
Si       Si     0.365530000000     0.543220000000     0.074835000000     0          
Si       Si     0.439640000000     0.543150000000     0.074832500000     0          
O        O      0.402595000000     0.555070000000     0.071910000000     0          
O        O      0.345235000000     0.570730000000     0.043227500000     0          
O        O      0.460310000000     0.570360000000     0.043365000000     0          
Si       Si     0.134470000000     0.956780000000     0.074835000000     0          
Si       Si     0.060360000000     0.956850000000     0.074832500000     0          
O        O      0.097405000000     0.944930000000     0.071910000000     0          
O        O      0.154765000000     0.929270000000     0.043227500000     0          
O        O      0.039690000000     0.929640000000     0.043365000000     0          
Si       Si     0.384470000000     0.793220000000     0.074835000000     0          
Si       Si     0.310360000000     0.793150000000     0.074832500000     0          
Si       Si     0.344725000000     0.902890000000     0.000000000000     0          
Si       Si     0.285710000000     0.846090000000     0.000000000000     0          
O        O      0.347405000000     0.805070000000     0.071910000000     0          
O        O      0.404765000000     0.820730000000     0.043227500000     0          
O        O      0.388665000000     0.750000000000     0.059367500000     0          
O        O      0.396470000000     0.797590000000     0.125000000000     0          
O        O      0.306295000000     0.750000000000     0.059070000000     0          
O        O      0.298320000000     0.797250000000     0.125000000000     0          
O        O      0.289690000000     0.820360000000     0.043365000000     0          
O        O      0.311825000000     0.879385000000     0.000000000000     0          
O        O      0.250000000000     0.863150000000     0.000000000000     0          
Si       Si     0.115530000000     0.706780000000     0.074835000000     0          
Si       Si     0.189640000000     0.706850000000     0.074832500000     0          
Si       Si     0.155275000000     0.597110000000     0.000000000000     0          
Si       Si     0.214290000000     0.653910000000     0.000000000000     0          
O        O      0.152595000000     0.694930000000     0.071910000000     0          
O        O      0.095235000000     0.679270000000     0.043227500000     0          
O        O      0.111335000000     0.750000000000     0.059367500000     0          
O        O      0.103530000000     0.702410000000     0.125000000000     0          
O        O      0.193705000000     0.750000000000     0.059070000000     0          
O        O      0.201680000000     0.702750000000     0.125000000000     0          
O        O      0.210310000000     0.679640000000     0.043365000000     0          
O        O      0.188175000000     0.620615000000     0.000000000000     0          
O        O      0.250000000000     0.636850000000     0.000000000000     0          
Si       Si     0.384470000000     0.706780000000     0.175165000000     0          
Si       Si     0.310360000000     0.706850000000     0.175167500000     0          
Si       Si     0.344725000000     0.597110000000     0.000000000000     0          
Si       Si     0.285710000000     0.653910000000     0.000000000000     0          
O        O      0.347405000000     0.694930000000     0.178090000000     0          
O        O      0.404765000000     0.679270000000     0.206772500000     0          
O        O      0.388665000000     0.750000000000     0.190632500000     0          
O        O      0.396470000000     0.702410000000     0.125000000000     0          
O        O      0.306295000000     0.750000000000     0.190930000000     0          
O        O      0.298320000000     0.702750000000     0.125000000000     0          
O        O      0.289690000000     0.679640000000     0.206635000000     0          
O        O      0.311825000000     0.620615000000     0.000000000000     0          
Si       Si     0.115530000000     0.793220000000     0.175165000000     0          
Si       Si     0.189640000000     0.793150000000     0.175167500000     0          
Si       Si     0.155275000000     0.902890000000     0.000000000000     0          
Si       Si     0.214290000000     0.846090000000     0.000000000000     0          
O        O      0.152595000000     0.805070000000     0.178090000000     0          
O        O      0.095235000000     0.820730000000     0.206772500000     0          
O        O      0.111335000000     0.750000000000     0.190632500000     0          
O        O      0.103530000000     0.797590000000     0.125000000000     0          
O        O      0.193705000000     0.750000000000     0.190930000000     0          
O        O      0.201680000000     0.797250000000     0.125000000000     0          
O        O      0.210310000000     0.820360000000     0.206635000000     0          
O        O      0.188175000000     0.879385000000     0.000000000000     0          
Si       Si     0.115530000000     0.706780000000     0.175165000000     0          
Si       Si     0.189640000000     0.706850000000     0.175167500000     0          
O        O      0.152595000000     0.694930000000     0.178090000000     0          
O        O      0.095235000000     0.679270000000     0.206772500000     0          
O        O      0.210310000000     0.679640000000     0.206635000000     0          
Si       Si     0.384470000000     0.793220000000     0.175165000000     0          
Si       Si     0.310360000000     0.793150000000     0.175167500000     0          
O        O      0.347405000000     0.805070000000     0.178090000000     0          
O        O      0.404765000000     0.820730000000     0.206772500000     0          
O        O      0.289690000000     0.820360000000     0.206635000000     0          
Si       Si     0.115530000000     0.793220000000     0.074835000000     0          
Si       Si     0.189640000000     0.793150000000     0.074832500000     0          
O        O      0.152595000000     0.805070000000     0.071910000000     0          
O        O      0.095235000000     0.820730000000     0.043227500000     0          
O        O      0.210310000000     0.820360000000     0.043365000000     0          
Si       Si     0.384470000000     0.706780000000     0.074835000000     0          
Si       Si     0.310360000000     0.706850000000     0.074832500000     0          
O        O      0.347405000000     0.694930000000     0.071910000000     0          
O        O      0.404765000000     0.679270000000     0.043227500000     0          
O        O      0.289690000000     0.679640000000     0.043365000000     0          
Si       Si     0.134470000000     0.543220000000     0.324835000000     0          
Si       Si     0.060360000000     0.543150000000     0.324832500000     0          
Si       Si     0.094725000000     0.652890000000     0.250000000000     0          
Si       Si     0.035710000000     0.596090000000     0.250000000000     0          
O        O      0.097405000000     0.555070000000     0.321910000000     0          
O        O      0.154765000000     0.570730000000     0.293227500000     0          
O        O      0.138665000000     0.500000000000     0.309367500000     0          
O        O      0.146470000000     0.547590000000     0.375000000000     0          
O        O      0.056295000000     0.500000000000     0.309070000000     0          
O        O      0.048320000000     0.547250000000     0.375000000000     0          
O        O      0.039690000000     0.570360000000     0.293365000000     0          
O        O      0.125000000000     0.625000000000     0.250000000000     0          
O        O      0.061825000000     0.629385000000     0.250000000000     0          
O        O      0.000000000000     0.613150000000     0.250000000000     0          
Si       Si     0.365530000000     0.956780000000     0.324835000000     0          
Si       Si     0.439640000000     0.956850000000     0.324832500000     0          
Si       Si     0.405275000000     0.847110000000     0.250000000000     0          
Si       Si     0.464290000000     0.903910000000     0.250000000000     0          
O        O      0.402595000000     0.944930000000     0.321910000000     0          
O        O      0.345235000000     0.929270000000     0.293227500000     0          
O        O      0.361335000000     0.500000000000     0.309367500000     0          
O        O      0.353530000000     0.952410000000     0.375000000000     0          
O        O      0.443705000000     0.500000000000     0.309070000000     0          
O        O      0.451680000000     0.952750000000     0.375000000000     0          
O        O      0.460310000000     0.929640000000     0.293365000000     0          
O        O      0.375000000000     0.875000000000     0.250000000000     0          
O        O      0.438175000000     0.870615000000     0.250000000000     0          
O        O      0.000000000000     0.886850000000     0.250000000000     0          
Si       Si     0.134470000000     0.956780000000     0.425165000000     0          
Si       Si     0.060360000000     0.956850000000     0.425167500000     0          
Si       Si     0.094725000000     0.847110000000     0.250000000000     0          
Si       Si     0.035710000000     0.903910000000     0.250000000000     0          
O        O      0.097405000000     0.944930000000     0.428090000000     0          
O        O      0.154765000000     0.929270000000     0.456772500000     0          
O        O      0.138665000000     0.500000000000     0.440632500000     0          
O        O      0.146470000000     0.952410000000     0.375000000000     0          
O        O      0.056295000000     0.500000000000     0.440930000000     0          
O        O      0.048320000000     0.952750000000     0.375000000000     0          
O        O      0.039690000000     0.929640000000     0.456635000000     0          
O        O      0.125000000000     0.875000000000     0.250000000000     0          
O        O      0.061825000000     0.870615000000     0.250000000000     0          
Si       Si     0.365530000000     0.543220000000     0.425165000000     0          
Si       Si     0.439640000000     0.543150000000     0.425167500000     0          
Si       Si     0.405275000000     0.652890000000     0.250000000000     0          
Si       Si     0.464290000000     0.596090000000     0.250000000000     0          
O        O      0.402595000000     0.555070000000     0.428090000000     0          
O        O      0.345235000000     0.570730000000     0.456772500000     0          
O        O      0.361335000000     0.500000000000     0.440632500000     0          
O        O      0.353530000000     0.547590000000     0.375000000000     0          
O        O      0.443705000000     0.500000000000     0.440930000000     0          
O        O      0.451680000000     0.547250000000     0.375000000000     0          
O        O      0.460310000000     0.570360000000     0.456635000000     0          
O        O      0.375000000000     0.625000000000     0.250000000000     0          
O        O      0.438175000000     0.629385000000     0.250000000000     0          
Si       Si     0.365530000000     0.956780000000     0.425165000000     0          
Si       Si     0.439640000000     0.956850000000     0.425167500000     0          
O        O      0.402595000000     0.944930000000     0.428090000000     0          
O        O      0.345235000000     0.929270000000     0.456772500000     0          
O        O      0.460310000000     0.929640000000     0.456635000000     0          
Si       Si     0.134470000000     0.543220000000     0.425165000000     0          
Si       Si     0.060360000000     0.543150000000     0.425167500000     0          
O        O      0.097405000000     0.555070000000     0.428090000000     0          
O        O      0.154765000000     0.570730000000     0.456772500000     0          
O        O      0.039690000000     0.570360000000     0.456635000000     0          
Si       Si     0.365530000000     0.543220000000     0.324835000000     0          
Si       Si     0.439640000000     0.543150000000     0.324832500000     0          
O        O      0.402595000000     0.555070000000     0.321910000000     0          
O        O      0.345235000000     0.570730000000     0.293227500000     0          
O        O      0.460310000000     0.570360000000     0.293365000000     0          
Si       Si     0.134470000000     0.956780000000     0.324835000000     0          
Si       Si     0.060360000000     0.956850000000     0.324832500000     0          
O        O      0.097405000000     0.944930000000     0.321910000000     0          
O        O      0.154765000000     0.929270000000     0.293227500000     0          
O        O      0.039690000000     0.929640000000     0.293365000000     0          
Si       Si     0.384470000000     0.793220000000     0.324835000000     0          
Si       Si     0.310360000000     0.793150000000     0.324832500000     0          
Si       Si     0.344725000000     0.902890000000     0.250000000000     0          
Si       Si     0.285710000000     0.846090000000     0.250000000000     0          
O        O      0.347405000000     0.805070000000     0.321910000000     0          
O        O      0.404765000000     0.820730000000     0.293227500000     0          
O        O      0.388665000000     0.750000000000     0.309367500000     0          
O        O      0.396470000000     0.797590000000     0.375000000000     0          
O        O      0.306295000000     0.750000000000     0.309070000000     0          
O        O      0.298320000000     0.797250000000     0.375000000000     0          
O        O      0.289690000000     0.820360000000     0.293365000000     0          
O        O      0.311825000000     0.879385000000     0.250000000000     0          
O        O      0.250000000000     0.863150000000     0.250000000000     0          
Si       Si     0.115530000000     0.706780000000     0.324835000000     0          
Si       Si     0.189640000000     0.706850000000     0.324832500000     0          
Si       Si     0.155275000000     0.597110000000     0.250000000000     0          
Si       Si     0.214290000000     0.653910000000     0.250000000000     0          
O        O      0.152595000000     0.694930000000     0.321910000000     0          
O        O      0.095235000000     0.679270000000     0.293227500000     0          
O        O      0.111335000000     0.750000000000     0.309367500000     0          
O        O      0.103530000000     0.702410000000     0.375000000000     0          
O        O      0.193705000000     0.750000000000     0.309070000000     0          
O        O      0.201680000000     0.702750000000     0.375000000000     0          
O        O      0.210310000000     0.679640000000     0.293365000000     0          
O        O      0.188175000000     0.620615000000     0.250000000000     0          
O        O      0.250000000000     0.636850000000     0.250000000000     0          
Si       Si     0.384470000000     0.706780000000     0.425165000000     0          
Si       Si     0.310360000000     0.706850000000     0.425167500000     0          
Si       Si     0.344725000000     0.597110000000     0.250000000000     0          
Si       Si     0.285710000000     0.653910000000     0.250000000000     0          
O        O      0.347405000000     0.694930000000     0.428090000000     0          
O        O      0.404765000000     0.679270000000     0.456772500000     0          
O        O      0.388665000000     0.750000000000     0.440632500000     0          
O        O      0.396470000000     0.702410000000     0.375000000000     0          
O        O      0.306295000000     0.750000000000     0.440930000000     0          
O        O      0.298320000000     0.702750000000     0.375000000000     0          
O        O      0.289690000000     0.679640000000     0.456635000000     0          
O        O      0.311825000000     0.620615000000     0.250000000000     0          
Si       Si     0.115530000000     0.793220000000     0.425165000000     0          
Si       Si     0.189640000000     0.793150000000     0.425167500000     0          
Si       Si     0.155275000000     0.902890000000     0.250000000000     0          
Si       Si     0.214290000000     0.846090000000     0.250000000000     0          
O        O      0.152595000000     0.805070000000     0.428090000000     0          
O        O      0.095235000000     0.820730000000     0.456772500000     0          
O        O      0.111335000000     0.750000000000     0.440632500000     0          
O        O      0.103530000000     0.797590000000     0.375000000000     0          
O        O      0.193705000000     0.750000000000     0.440930000000     0          
O        O      0.201680000000     0.797250000000     0.375000000000     0          
O        O      0.210310000000     0.820360000000     0.456635000000     0          
O        O      0.188175000000     0.879385000000     0.250000000000     0          
Si       Si     0.115530000000     0.706780000000     0.425165000000     0          
Si       Si     0.189640000000     0.706850000000     0.425167500000     0          
O        O      0.152595000000     0.694930000000     0.428090000000     0          
O        O      0.095235000000     0.679270000000     0.456772500000     0          
O        O      0.210310000000     0.679640000000     0.456635000000     0          
Si       Si     0.384470000000     0.793220000000     0.425165000000     0          
Si       Si     0.310360000000     0.793150000000     0.425167500000     0          
O        O      0.347405000000     0.805070000000     0.428090000000     0          
O        O      0.404765000000     0.820730000000     0.456772500000     0          
O        O      0.289690000000     0.820360000000     0.456635000000     0          
Si       Si     0.115530000000     0.793220000000     0.324835000000     0          
Si       Si     0.189640000000     0.793150000000     0.324832500000     0          
O        O      0.152595000000     0.805070000000     0.321910000000     0          
O        O      0.095235000000     0.820730000000     0.293227500000     0          
O        O      0.210310000000     0.820360000000     0.293365000000     0          
Si       Si     0.384470000000     0.706780000000     0.324835000000     0          
Si       Si     0.310360000000     0.706850000000     0.324832500000     0          
O        O      0.347405000000     0.694930000000     0.321910000000     0          
O        O      0.404765000000     0.679270000000     0.293227500000     0          
O        O      0.289690000000     0.679640000000     0.293365000000     0          
Si       Si     0.134470000000     0.543220000000     0.574835000000     0          
Si       Si     0.060360000000     0.543150000000     0.574832500000     0          
Si       Si     0.094725000000     0.652890000000     0.500000000000     0          
Si       Si     0.035710000000     0.596090000000     0.500000000000     0          
O        O      0.097405000000     0.555070000000     0.571910000000     0          
O        O      0.154765000000     0.570730000000     0.543227500000     0          
O        O      0.138665000000     0.500000000000     0.559367500000     0          
O        O      0.146470000000     0.547590000000     0.625000000000     0          
O        O      0.056295000000     0.500000000000     0.559070000000     0          
O        O      0.048320000000     0.547250000000     0.625000000000     0          
O        O      0.039690000000     0.570360000000     0.543365000000     0          
O        O      0.125000000000     0.625000000000     0.500000000000     0          
O        O      0.061825000000     0.629385000000     0.500000000000     0          
O        O      0.000000000000     0.613150000000     0.500000000000     0          
Si       Si     0.365530000000     0.956780000000     0.574835000000     0          
Si       Si     0.439640000000     0.956850000000     0.574832500000     0          
Si       Si     0.405275000000     0.847110000000     0.500000000000     0          
Si       Si     0.464290000000     0.903910000000     0.500000000000     0          
O        O      0.402595000000     0.944930000000     0.571910000000     0          
O        O      0.345235000000     0.929270000000     0.543227500000     0          
O        O      0.361335000000     0.500000000000     0.559367500000     0          
O        O      0.353530000000     0.952410000000     0.625000000000     0          
O        O      0.443705000000     0.500000000000     0.559070000000     0          
O        O      0.451680000000     0.952750000000     0.625000000000     0          
O        O      0.460310000000     0.929640000000     0.543365000000     0          
O        O      0.375000000000     0.875000000000     0.500000000000     0          
O        O      0.438175000000     0.870615000000     0.500000000000     0          
O        O      0.000000000000     0.886850000000     0.500000000000     0          
Si       Si     0.134470000000     0.956780000000     0.675165000000     0          
Si       Si     0.060360000000     0.956850000000     0.675167500000     0          
Si       Si     0.094725000000     0.847110000000     0.500000000000     0          
Si       Si     0.035710000000     0.903910000000     0.500000000000     0          
O        O      0.097405000000     0.944930000000     0.678090000000     0          
O        O      0.154765000000     0.929270000000     0.706772500000     0          
O        O      0.138665000000     0.500000000000     0.690632500000     0          
O        O      0.146470000000     0.952410000000     0.625000000000     0          
O        O      0.056295000000     0.500000000000     0.690930000000     0          
O        O      0.048320000000     0.952750000000     0.625000000000     0          
O        O      0.039690000000     0.929640000000     0.706635000000     0          
O        O      0.125000000000     0.875000000000     0.500000000000     0          
O        O      0.061825000000     0.870615000000     0.500000000000     0          
Si       Si     0.365530000000     0.543220000000     0.675165000000     0          
Si       Si     0.439640000000     0.543150000000     0.675167500000     0          
Si       Si     0.405275000000     0.652890000000     0.500000000000     0          
Si       Si     0.464290000000     0.596090000000     0.500000000000     0          
O        O      0.402595000000     0.555070000000     0.678090000000     0          
O        O      0.345235000000     0.570730000000     0.706772500000     0          
O        O      0.361335000000     0.500000000000     0.690632500000     0          
O        O      0.353530000000     0.547590000000     0.625000000000     0          
O        O      0.443705000000     0.500000000000     0.690930000000     0          
O        O      0.451680000000     0.547250000000     0.625000000000     0          
O        O      0.460310000000     0.570360000000     0.706635000000     0          
O        O      0.375000000000     0.625000000000     0.500000000000     0          
O        O      0.438175000000     0.629385000000     0.500000000000     0          
Si       Si     0.365530000000     0.956780000000     0.675165000000     0          
Si       Si     0.439640000000     0.956850000000     0.675167500000     0          
O        O      0.402595000000     0.944930000000     0.678090000000     0          
O        O      0.345235000000     0.929270000000     0.706772500000     0          
O        O      0.460310000000     0.929640000000     0.706635000000     0          
Si       Si     0.134470000000     0.543220000000     0.675165000000     0          
Si       Si     0.060360000000     0.543150000000     0.675167500000     0          
O        O      0.097405000000     0.555070000000     0.678090000000     0          
O        O      0.154765000000     0.570730000000     0.706772500000     0          
O        O      0.039690000000     0.570360000000     0.706635000000     0          
Si       Si     0.365530000000     0.543220000000     0.574835000000     0          
Si       Si     0.439640000000     0.543150000000     0.574832500000     0          
O        O      0.402595000000     0.555070000000     0.571910000000     0          
O        O      0.345235000000     0.570730000000     0.543227500000     0          
O        O      0.460310000000     0.570360000000     0.543365000000     0          
Si       Si     0.134470000000     0.956780000000     0.574835000000     0          
Si       Si     0.060360000000     0.956850000000     0.574832500000     0          
O        O      0.097405000000     0.944930000000     0.571910000000     0          
O        O      0.154765000000     0.929270000000     0.543227500000     0          
O        O      0.039690000000     0.929640000000     0.543365000000     0          
Si       Si     0.384470000000     0.793220000000     0.574835000000     0          
Si       Si     0.310360000000     0.793150000000     0.574832500000     0          
Si       Si     0.344725000000     0.902890000000     0.500000000000     0          
Si       Si     0.285710000000     0.846090000000     0.500000000000     0          
O        O      0.347405000000     0.805070000000     0.571910000000     0          
O        O      0.404765000000     0.820730000000     0.543227500000     0          
O        O      0.388665000000     0.750000000000     0.559367500000     0          
O        O      0.396470000000     0.797590000000     0.625000000000     0          
O        O      0.306295000000     0.750000000000     0.559070000000     0          
O        O      0.298320000000     0.797250000000     0.625000000000     0          
O        O      0.289690000000     0.820360000000     0.543365000000     0          
O        O      0.311825000000     0.879385000000     0.500000000000     0          
O        O      0.250000000000     0.863150000000     0.500000000000     0          
Si       Si     0.115530000000     0.706780000000     0.574835000000     0          
Si       Si     0.189640000000     0.706850000000     0.574832500000     0          
Si       Si     0.155275000000     0.597110000000     0.500000000000     0          
Si       Si     0.214290000000     0.653910000000     0.500000000000     0          
O        O      0.152595000000     0.694930000000     0.571910000000     0          
O        O      0.095235000000     0.679270000000     0.543227500000     0          
O        O      0.111335000000     0.750000000000     0.559367500000     0          
O        O      0.103530000000     0.702410000000     0.625000000000     0          
O        O      0.193705000000     0.750000000000     0.559070000000     0          
O        O      0.201680000000     0.702750000000     0.625000000000     0          
O        O      0.210310000000     0.679640000000     0.543365000000     0          
O        O      0.188175000000     0.620615000000     0.500000000000     0          
O        O      0.250000000000     0.636850000000     0.500000000000     0          
Si       Si     0.384470000000     0.706780000000     0.675165000000     0          
Si       Si     0.310360000000     0.706850000000     0.675167500000     0          
Si       Si     0.344725000000     0.597110000000     0.500000000000     0          
Si       Si     0.285710000000     0.653910000000     0.500000000000     0          
O        O      0.347405000000     0.694930000000     0.678090000000     0          
O        O      0.404765000000     0.679270000000     0.706772500000     0          
O        O      0.388665000000     0.750000000000     0.690632500000     0          
O        O      0.396470000000     0.702410000000     0.625000000000     0          
O        O      0.306295000000     0.750000000000     0.690930000000     0          
O        O      0.298320000000     0.702750000000     0.625000000000     0          
O        O      0.289690000000     0.679640000000     0.706635000000     0          
O        O      0.311825000000     0.620615000000     0.500000000000     0          
Si       Si     0.115530000000     0.793220000000     0.675165000000     0          
Si       Si     0.189640000000     0.793150000000     0.675167500000     0          
Si       Si     0.155275000000     0.902890000000     0.500000000000     0          
Si       Si     0.214290000000     0.846090000000     0.500000000000     0          
O        O      0.152595000000     0.805070000000     0.678090000000     0          
O        O      0.095235000000     0.820730000000     0.706772500000     0          
O        O      0.111335000000     0.750000000000     0.690632500000     0          
O        O      0.103530000000     0.797590000000     0.625000000000     0          
O        O      0.193705000000     0.750000000000     0.690930000000     0          
O        O      0.201680000000     0.797250000000     0.625000000000     0          
O        O      0.210310000000     0.820360000000     0.706635000000     0          
O        O      0.188175000000     0.879385000000     0.500000000000     0          
Si       Si     0.115530000000     0.706780000000     0.675165000000     0          
Si       Si     0.189640000000     0.706850000000     0.675167500000     0          
O        O      0.152595000000     0.694930000000     0.678090000000     0          
O        O      0.095235000000     0.679270000000     0.706772500000     0          
O        O      0.210310000000     0.679640000000     0.706635000000     0          
Si       Si     0.384470000000     0.793220000000     0.675165000000     0          
Si       Si     0.310360000000     0.793150000000     0.675167500000     0          
O        O      0.347405000000     0.805070000000     0.678090000000     0          
O        O      0.404765000000     0.820730000000     0.706772500000     0          
O        O      0.289690000000     0.820360000000     0.706635000000     0          
Si       Si     0.115530000000     0.793220000000     0.574835000000     0          
Si       Si     0.189640000000     0.793150000000     0.574832500000     0          
O        O      0.152595000000     0.805070000000     0.571910000000     0          
O        O      0.095235000000     0.820730000000     0.543227500000     0          
O        O      0.210310000000     0.820360000000     0.543365000000     0          
Si       Si     0.384470000000     0.706780000000     0.574835000000     0          
Si       Si     0.310360000000     0.706850000000     0.574832500000     0          
O        O      0.347405000000     0.694930000000     0.571910000000     0          
O        O      0.404765000000     0.679270000000     0.543227500000     0          
O        O      0.289690000000     0.679640000000     0.543365000000     0          
Si       Si     0.134470000000     0.543220000000     0.824835000000     0          
Si       Si     0.060360000000     0.543150000000     0.824832500000     0          
Si       Si     0.094725000000     0.652890000000     0.750000000000     0          
Si       Si     0.035710000000     0.596090000000     0.750000000000     0          
O        O      0.097405000000     0.555070000000     0.821910000000     0          
O        O      0.154765000000     0.570730000000     0.793227500000     0          
O        O      0.138665000000     0.500000000000     0.809367500000     0          
O        O      0.146470000000     0.547590000000     0.875000000000     0          
O        O      0.056295000000     0.500000000000     0.809070000000     0          
O        O      0.048320000000     0.547250000000     0.875000000000     0          
O        O      0.039690000000     0.570360000000     0.793365000000     0          
O        O      0.125000000000     0.625000000000     0.750000000000     0          
O        O      0.061825000000     0.629385000000     0.750000000000     0          
O        O      0.000000000000     0.613150000000     0.750000000000     0          
Si       Si     0.365530000000     0.956780000000     0.824835000000     0          
Si       Si     0.439640000000     0.956850000000     0.824832500000     0          
Si       Si     0.405275000000     0.847110000000     0.750000000000     0          
Si       Si     0.464290000000     0.903910000000     0.750000000000     0          
O        O      0.402595000000     0.944930000000     0.821910000000     0          
O        O      0.345235000000     0.929270000000     0.793227500000     0          
O        O      0.361335000000     0.500000000000     0.809367500000     0          
O        O      0.353530000000     0.952410000000     0.875000000000     0          
O        O      0.443705000000     0.500000000000     0.809070000000     0          
O        O      0.451680000000     0.952750000000     0.875000000000     0          
O        O      0.460310000000     0.929640000000     0.793365000000     0          
O        O      0.375000000000     0.875000000000     0.750000000000     0          
O        O      0.438175000000     0.870615000000     0.750000000000     0          
O        O      0.000000000000     0.886850000000     0.750000000000     0          
Si       Si     0.134470000000     0.956780000000     0.925165000000     0          
Si       Si     0.060360000000     0.956850000000     0.925167500000     0          
Si       Si     0.094725000000     0.847110000000     0.750000000000     0          
Si       Si     0.035710000000     0.903910000000     0.750000000000     0          
O        O      0.097405000000     0.944930000000     0.928090000000     0          
O        O      0.154765000000     0.929270000000     0.956772500000     0          
O        O      0.138665000000     0.500000000000     0.940632500000     0          
O        O      0.146470000000     0.952410000000     0.875000000000     0          
O        O      0.056295000000     0.500000000000     0.940930000000     0          
O        O      0.048320000000     0.952750000000     0.875000000000     0          
O        O      0.039690000000     0.929640000000     0.956635000000     0          
O        O      0.125000000000     0.875000000000     0.750000000000     0          
O        O      0.061825000000     0.870615000000     0.750000000000     0          
Si       Si     0.365530000000     0.543220000000     0.925165000000     0          
Si       Si     0.439640000000     0.543150000000     0.925167500000     0          
Si       Si     0.405275000000     0.652890000000     0.750000000000     0          
Si       Si     0.464290000000     0.596090000000     0.750000000000     0          
O        O      0.402595000000     0.555070000000     0.928090000000     0          
O        O      0.345235000000     0.570730000000     0.956772500000     0          
O        O      0.361335000000     0.500000000000     0.940632500000     0          
O        O      0.353530000000     0.547590000000     0.875000000000     0          
O        O      0.443705000000     0.500000000000     0.940930000000     0          
O        O      0.451680000000     0.547250000000     0.875000000000     0          
O        O      0.460310000000     0.570360000000     0.956635000000     0          
O        O      0.375000000000     0.625000000000     0.750000000000     0          
O        O      0.438175000000     0.629385000000     0.750000000000     0          
Si       Si     0.365530000000     0.956780000000     0.925165000000     0          
Si       Si     0.439640000000     0.956850000000     0.925167500000     0          
O        O      0.402595000000     0.944930000000     0.928090000000     0          
O        O      0.345235000000     0.929270000000     0.956772500000     0          
O        O      0.460310000000     0.929640000000     0.956635000000     0          
Si       Si     0.134470000000     0.543220000000     0.925165000000     0          
Si       Si     0.060360000000     0.543150000000     0.925167500000     0          
O        O      0.097405000000     0.555070000000     0.928090000000     0          
O        O      0.154765000000     0.570730000000     0.956772500000     0          
O        O      0.039690000000     0.570360000000     0.956635000000     0          
Si       Si     0.365530000000     0.543220000000     0.824835000000     0          
Si       Si     0.439640000000     0.543150000000     0.824832500000     0          
O        O      0.402595000000     0.555070000000     0.821910000000     0          
O        O      0.345235000000     0.570730000000     0.793227500000     0          
O        O      0.460310000000     0.570360000000     0.793365000000     0          
Si       Si     0.134470000000     0.956780000000     0.824835000000     0          
Si       Si     0.060360000000     0.956850000000     0.824832500000     0          
O        O      0.097405000000     0.944930000000     0.821910000000     0          
O        O      0.154765000000     0.929270000000     0.793227500000     0          
O        O      0.039690000000     0.929640000000     0.793365000000     0          
Si       Si     0.384470000000     0.793220000000     0.824835000000     0          
Si       Si     0.310360000000     0.793150000000     0.824832500000     0          
Si       Si     0.344725000000     0.902890000000     0.750000000000     0          
Si       Si     0.285710000000     0.846090000000     0.750000000000     0          
O        O      0.347405000000     0.805070000000     0.821910000000     0          
O        O      0.404765000000     0.820730000000     0.793227500000     0          
O        O      0.388665000000     0.750000000000     0.809367500000     0          
O        O      0.396470000000     0.797590000000     0.875000000000     0          
O        O      0.306295000000     0.750000000000     0.809070000000     0          
O        O      0.298320000000     0.797250000000     0.875000000000     0          
O        O      0.289690000000     0.820360000000     0.793365000000     0          
O        O      0.311825000000     0.879385000000     0.750000000000     0          
O        O      0.250000000000     0.863150000000     0.750000000000     0          
Si       Si     0.115530000000     0.706780000000     0.824835000000     0          
Si       Si     0.189640000000     0.706850000000     0.824832500000     0          
Si       Si     0.155275000000     0.597110000000     0.750000000000     0          
Si       Si     0.214290000000     0.653910000000     0.750000000000     0          
O        O      0.152595000000     0.694930000000     0.821910000000     0          
O        O      0.095235000000     0.679270000000     0.793227500000     0          
O        O      0.111335000000     0.750000000000     0.809367500000     0          
O        O      0.103530000000     0.702410000000     0.875000000000     0          
O        O      0.193705000000     0.750000000000     0.809070000000     0          
O        O      0.201680000000     0.702750000000     0.875000000000     0          
O        O      0.210310000000     0.679640000000     0.793365000000     0          
O        O      0.188175000000     0.620615000000     0.750000000000     0          
O        O      0.250000000000     0.636850000000     0.750000000000     0          
Si       Si     0.384470000000     0.706780000000     0.925165000000     0          
Si       Si     0.310360000000     0.706850000000     0.925167500000     0          
Si       Si     0.344725000000     0.597110000000     0.750000000000     0          
Si       Si     0.285710000000     0.653910000000     0.750000000000     0          
O        O      0.347405000000     0.694930000000     0.928090000000     0          
O        O      0.404765000000     0.679270000000     0.956772500000     0          
O        O      0.388665000000     0.750000000000     0.940632500000     0          
O        O      0.396470000000     0.702410000000     0.875000000000     0          
O        O      0.306295000000     0.750000000000     0.940930000000     0          
O        O      0.298320000000     0.702750000000     0.875000000000     0          
O        O      0.289690000000     0.679640000000     0.956635000000     0          
O        O      0.311825000000     0.620615000000     0.750000000000     0          
Si       Si     0.115530000000     0.793220000000     0.925165000000     0          
Si       Si     0.189640000000     0.793150000000     0.925167500000     0          
Si       Si     0.155275000000     0.902890000000     0.750000000000     0          
Si       Si     0.214290000000     0.846090000000     0.750000000000     0          
O        O      0.152595000000     0.805070000000     0.928090000000     0          
O        O      0.095235000000     0.820730000000     0.956772500000     0          
O        O      0.111335000000     0.750000000000     0.940632500000     0          
O        O      0.103530000000     0.797590000000     0.875000000000     0          
O        O      0.193705000000     0.750000000000     0.940930000000     0          
O        O      0.201680000000     0.797250000000     0.875000000000     0          
O        O      0.210310000000     0.820360000000     0.956635000000     0          
O        O      0.188175000000     0.879385000000     0.750000000000     0          
Si       Si     0.115530000000     0.706780000000     0.925165000000     0          
Si       Si     0.189640000000     0.706850000000     0.925167500000     0          
O        O      0.152595000000     0.694930000000     0.928090000000     0          
O        O      0.095235000000     0.679270000000     0.956772500000     0          
O        O      0.210310000000     0.679640000000     0.956635000000     0          
Si       Si     0.384470000000     0.793220000000     0.925165000000     0          
Si       Si     0.310360000000     0.793150000000     0.925167500000     0          
O        O      0.347405000000     0.805070000000     0.928090000000     0          
O        O      0.404765000000     0.820730000000     0.956772500000     0          
O        O      0.289690000000     0.820360000000     0.956635000000     0          
Si       Si     0.115530000000     0.793220000000     0.824835000000     0          
Si       Si     0.189640000000     0.793150000000     0.824832500000     0          
O        O      0.152595000000     0.805070000000     0.821910000000     0          
O        O      0.095235000000     0.820730000000     0.793227500000     0          
O        O      0.210310000000     0.820360000000     0.793365000000     0          
Si       Si     0.384470000000     0.706780000000     0.824835000000     0          
Si       Si     0.310360000000     0.706850000000     0.824832500000     0          
O        O      0.347405000000     0.694930000000     0.821910000000     0          
O        O      0.404765000000     0.679270000000     0.793227500000     0          
O        O      0.289690000000     0.679640000000     0.793365000000     0          
Si       Si     0.634470000000     0.043220000000     0.074835000000     0          
Si       Si     0.560360000000     0.043150000000     0.074832500000     0          
Si       Si     0.594725000000     0.152890000000     0.000000000000     0          
Si       Si     0.535710000000     0.096090000000     0.000000000000     0          
O        O      0.597405000000     0.055070000000     0.071910000000     0          
O        O      0.654765000000     0.070730000000     0.043227500000     0          
O        O      0.638665000000     0.000000000000     0.059367500000     0          
O        O      0.646470000000     0.047590000000     0.125000000000     0          
O        O      0.556295000000     0.000000000000     0.059070000000     0          
O        O      0.548320000000     0.047250000000     0.125000000000     0          
O        O      0.539690000000     0.070360000000     0.043365000000     0          
O        O      0.625000000000     0.125000000000     0.000000000000     0          
O        O      0.561825000000     0.129385000000     0.000000000000     0          
O        O      0.500000000000     0.113150000000     0.000000000000     0          
Si       Si     0.865530000000     0.456780000000     0.074835000000     0          
Si       Si     0.939640000000     0.456850000000     0.074832500000     0          
Si       Si     0.905275000000     0.347110000000     0.000000000000     0          
Si       Si     0.964290000000     0.403910000000     0.000000000000     0          
O        O      0.902595000000     0.444930000000     0.071910000000     0          
O        O      0.845235000000     0.429270000000     0.043227500000     0          
O        O      0.861335000000     0.000000000000     0.059367500000     0          
O        O      0.853530000000     0.452410000000     0.125000000000     0          
O        O      0.943705000000     0.000000000000     0.059070000000     0          
O        O      0.951680000000     0.452750000000     0.125000000000     0          
O        O      0.960310000000     0.429640000000     0.043365000000     0          
O        O      0.875000000000     0.375000000000     0.000000000000     0          
O        O      0.938175000000     0.370615000000     0.000000000000     0          
O        O      0.500000000000     0.386850000000     0.000000000000     0          
Si       Si     0.634470000000     0.456780000000     0.175165000000     0          
Si       Si     0.560360000000     0.456850000000     0.175167500000     0          
Si       Si     0.594725000000     0.347110000000     0.000000000000     0          
Si       Si     0.535710000000     0.403910000000     0.000000000000     0          
O        O      0.597405000000     0.444930000000     0.178090000000     0          
O        O      0.654765000000     0.429270000000     0.206772500000     0          
O        O      0.638665000000     0.000000000000     0.190632500000     0          
O        O      0.646470000000     0.452410000000     0.125000000000     0          
O        O      0.556295000000     0.000000000000     0.190930000000     0          
O        O      0.548320000000     0.452750000000     0.125000000000     0          
O        O      0.539690000000     0.429640000000     0.206635000000     0          
O        O      0.625000000000     0.375000000000     0.000000000000     0          
O        O      0.561825000000     0.370615000000     0.000000000000     0          
Si       Si     0.865530000000     0.043220000000     0.175165000000     0          
Si       Si     0.939640000000     0.043150000000     0.175167500000     0          
Si       Si     0.905275000000     0.152890000000     0.000000000000     0          
Si       Si     0.964290000000     0.096090000000     0.000000000000     0          
O        O      0.902595000000     0.055070000000     0.178090000000     0          
O        O      0.845235000000     0.070730000000     0.206772500000     0          
O        O      0.861335000000     0.000000000000     0.190632500000     0          
O        O      0.853530000000     0.047590000000     0.125000000000     0          
O        O      0.943705000000     0.000000000000     0.190930000000     0          
O        O      0.951680000000     0.047250000000     0.125000000000     0          
O        O      0.960310000000     0.070360000000     0.206635000000     0          
O        O      0.875000000000     0.125000000000     0.000000000000     0          
O        O      0.938175000000     0.129385000000     0.000000000000     0          
Si       Si     0.865530000000     0.456780000000     0.175165000000     0          
Si       Si     0.939640000000     0.456850000000     0.175167500000     0          
O        O      0.902595000000     0.444930000000     0.178090000000     0          
O        O      0.845235000000     0.429270000000     0.206772500000     0          
O        O      0.960310000000     0.429640000000     0.206635000000     0          
Si       Si     0.634470000000     0.043220000000     0.175165000000     0          
Si       Si     0.560360000000     0.043150000000     0.175167500000     0          
O        O      0.597405000000     0.055070000000     0.178090000000     0          
O        O      0.654765000000     0.070730000000     0.206772500000     0          
O        O      0.539690000000     0.070360000000     0.206635000000     0          
Si       Si     0.865530000000     0.043220000000     0.074835000000     0          
Si       Si     0.939640000000     0.043150000000     0.074832500000     0          
O        O      0.902595000000     0.055070000000     0.071910000000     0          
O        O      0.845235000000     0.070730000000     0.043227500000     0          
O        O      0.960310000000     0.070360000000     0.043365000000     0          
Si       Si     0.634470000000     0.456780000000     0.074835000000     0          
Si       Si     0.560360000000     0.456850000000     0.074832500000     0          
O        O      0.597405000000     0.444930000000     0.071910000000     0          
O        O      0.654765000000     0.429270000000     0.043227500000     0          
O        O      0.539690000000     0.429640000000     0.043365000000     0          
Si       Si     0.884470000000     0.293220000000     0.074835000000     0          
Si       Si     0.810360000000     0.293150000000     0.074832500000     0          
Si       Si     0.844725000000     0.402890000000     0.000000000000     0          
Si       Si     0.785710000000     0.346090000000     0.000000000000     0          
O        O      0.847405000000     0.305070000000     0.071910000000     0          
O        O      0.904765000000     0.320730000000     0.043227500000     0          
O        O      0.888665000000     0.250000000000     0.059367500000     0          
O        O      0.896470000000     0.297590000000     0.125000000000     0          
O        O      0.806295000000     0.250000000000     0.059070000000     0          
O        O      0.798320000000     0.297250000000     0.125000000000     0          
O        O      0.789690000000     0.320360000000     0.043365000000     0          
O        O      0.811825000000     0.379385000000     0.000000000000     0          
O        O      0.750000000000     0.363150000000     0.000000000000     0          
Si       Si     0.615530000000     0.206780000000     0.074835000000     0          
Si       Si     0.689640000000     0.206850000000     0.074832500000     0          
Si       Si     0.655275000000     0.097110000000     0.000000000000     0          
Si       Si     0.714290000000     0.153910000000     0.000000000000     0          
O        O      0.652595000000     0.194930000000     0.071910000000     0          
O        O      0.595235000000     0.179270000000     0.043227500000     0          
O        O      0.611335000000     0.250000000000     0.059367500000     0          
O        O      0.603530000000     0.202410000000     0.125000000000     0          
O        O      0.693705000000     0.250000000000     0.059070000000     0          
O        O      0.701680000000     0.202750000000     0.125000000000     0          
O        O      0.710310000000     0.179640000000     0.043365000000     0          
O        O      0.688175000000     0.120615000000     0.000000000000     0          
O        O      0.750000000000     0.136850000000     0.000000000000     0          
Si       Si     0.884470000000     0.206780000000     0.175165000000     0          
Si       Si     0.810360000000     0.206850000000     0.175167500000     0          
Si       Si     0.844725000000     0.097110000000     0.000000000000     0          
Si       Si     0.785710000000     0.153910000000     0.000000000000     0          
O        O      0.847405000000     0.194930000000     0.178090000000     0          
O        O      0.904765000000     0.179270000000     0.206772500000     0          
O        O      0.888665000000     0.250000000000     0.190632500000     0          
O        O      0.896470000000     0.202410000000     0.125000000000     0          
O        O      0.806295000000     0.250000000000     0.190930000000     0          
O        O      0.798320000000     0.202750000000     0.125000000000     0          
O        O      0.789690000000     0.179640000000     0.206635000000     0          
O        O      0.811825000000     0.120615000000     0.000000000000     0          
Si       Si     0.615530000000     0.293220000000     0.175165000000     0          
Si       Si     0.689640000000     0.293150000000     0.175167500000     0          
Si       Si     0.655275000000     0.402890000000     0.000000000000     0          
Si       Si     0.714290000000     0.346090000000     0.000000000000     0          
O        O      0.652595000000     0.305070000000     0.178090000000     0          
O        O      0.595235000000     0.320730000000     0.206772500000     0          
O        O      0.611335000000     0.250000000000     0.190632500000     0          
O        O      0.603530000000     0.297590000000     0.125000000000     0          
O        O      0.693705000000     0.250000000000     0.190930000000     0          
O        O      0.701680000000     0.297250000000     0.125000000000     0          
O        O      0.710310000000     0.320360000000     0.206635000000     0          
O        O      0.688175000000     0.379385000000     0.000000000000     0          
Si       Si     0.615530000000     0.206780000000     0.175165000000     0          
Si       Si     0.689640000000     0.206850000000     0.175167500000     0          
O        O      0.652595000000     0.194930000000     0.178090000000     0          
O        O      0.595235000000     0.179270000000     0.206772500000     0          
O        O      0.710310000000     0.179640000000     0.206635000000     0          
Si       Si     0.884470000000     0.293220000000     0.175165000000     0          
Si       Si     0.810360000000     0.293150000000     0.175167500000     0          
O        O      0.847405000000     0.305070000000     0.178090000000     0          
O        O      0.904765000000     0.320730000000     0.206772500000     0          
O        O      0.789690000000     0.320360000000     0.206635000000     0          
Si       Si     0.615530000000     0.293220000000     0.074835000000     0          
Si       Si     0.689640000000     0.293150000000     0.074832500000     0          
O        O      0.652595000000     0.305070000000     0.071910000000     0          
O        O      0.595235000000     0.320730000000     0.043227500000     0          
O        O      0.710310000000     0.320360000000     0.043365000000     0          
Si       Si     0.884470000000     0.206780000000     0.074835000000     0          
Si       Si     0.810360000000     0.206850000000     0.074832500000     0          
O        O      0.847405000000     0.194930000000     0.071910000000     0          
O        O      0.904765000000     0.179270000000     0.043227500000     0          
O        O      0.789690000000     0.179640000000     0.043365000000     0          
Si       Si     0.634470000000     0.043220000000     0.324835000000     0          
Si       Si     0.560360000000     0.043150000000     0.324832500000     0          
Si       Si     0.594725000000     0.152890000000     0.250000000000     0          
Si       Si     0.535710000000     0.096090000000     0.250000000000     0          
O        O      0.597405000000     0.055070000000     0.321910000000     0          
O        O      0.654765000000     0.070730000000     0.293227500000     0          
O        O      0.638665000000     0.000000000000     0.309367500000     0          
O        O      0.646470000000     0.047590000000     0.375000000000     0          
O        O      0.556295000000     0.000000000000     0.309070000000     0          
O        O      0.548320000000     0.047250000000     0.375000000000     0          
O        O      0.539690000000     0.070360000000     0.293365000000     0          
O        O      0.625000000000     0.125000000000     0.250000000000     0          
O        O      0.561825000000     0.129385000000     0.250000000000     0          
O        O      0.500000000000     0.113150000000     0.250000000000     0          
Si       Si     0.865530000000     0.456780000000     0.324835000000     0          
Si       Si     0.939640000000     0.456850000000     0.324832500000     0          
Si       Si     0.905275000000     0.347110000000     0.250000000000     0          
Si       Si     0.964290000000     0.403910000000     0.250000000000     0          
O        O      0.902595000000     0.444930000000     0.321910000000     0          
O        O      0.845235000000     0.429270000000     0.293227500000     0          
O        O      0.861335000000     0.000000000000     0.309367500000     0          
O        O      0.853530000000     0.452410000000     0.375000000000     0          
O        O      0.943705000000     0.000000000000     0.309070000000     0          
O        O      0.951680000000     0.452750000000     0.375000000000     0          
O        O      0.960310000000     0.429640000000     0.293365000000     0          
O        O      0.875000000000     0.375000000000     0.250000000000     0          
O        O      0.938175000000     0.370615000000     0.250000000000     0          
O        O      0.500000000000     0.386850000000     0.250000000000     0          
Si       Si     0.634470000000     0.456780000000     0.425165000000     0          
Si       Si     0.560360000000     0.456850000000     0.425167500000     0          
Si       Si     0.594725000000     0.347110000000     0.250000000000     0          
Si       Si     0.535710000000     0.403910000000     0.250000000000     0          
O        O      0.597405000000     0.444930000000     0.428090000000     0          
O        O      0.654765000000     0.429270000000     0.456772500000     0          
O        O      0.638665000000     0.000000000000     0.440632500000     0          
O        O      0.646470000000     0.452410000000     0.375000000000     0          
O        O      0.556295000000     0.000000000000     0.440930000000     0          
O        O      0.548320000000     0.452750000000     0.375000000000     0          
O        O      0.539690000000     0.429640000000     0.456635000000     0          
O        O      0.625000000000     0.375000000000     0.250000000000     0          
O        O      0.561825000000     0.370615000000     0.250000000000     0          
Si       Si     0.865530000000     0.043220000000     0.425165000000     0          
Si       Si     0.939640000000     0.043150000000     0.425167500000     0          
Si       Si     0.905275000000     0.152890000000     0.250000000000     0          
Si       Si     0.964290000000     0.096090000000     0.250000000000     0          
O        O      0.902595000000     0.055070000000     0.428090000000     0          
O        O      0.845235000000     0.070730000000     0.456772500000     0          
O        O      0.861335000000     0.000000000000     0.440632500000     0          
O        O      0.853530000000     0.047590000000     0.375000000000     0          
O        O      0.943705000000     0.000000000000     0.440930000000     0          
O        O      0.951680000000     0.047250000000     0.375000000000     0          
O        O      0.960310000000     0.070360000000     0.456635000000     0          
O        O      0.875000000000     0.125000000000     0.250000000000     0          
O        O      0.938175000000     0.129385000000     0.250000000000     0          
Si       Si     0.865530000000     0.456780000000     0.425165000000     0          
Si       Si     0.939640000000     0.456850000000     0.425167500000     0          
O        O      0.902595000000     0.444930000000     0.428090000000     0          
O        O      0.845235000000     0.429270000000     0.456772500000     0          
O        O      0.960310000000     0.429640000000     0.456635000000     0          
Si       Si     0.634470000000     0.043220000000     0.425165000000     0          
Si       Si     0.560360000000     0.043150000000     0.425167500000     0          
O        O      0.597405000000     0.055070000000     0.428090000000     0          
O        O      0.654765000000     0.070730000000     0.456772500000     0          
O        O      0.539690000000     0.070360000000     0.456635000000     0          
Si       Si     0.865530000000     0.043220000000     0.324835000000     0          
Si       Si     0.939640000000     0.043150000000     0.324832500000     0          
O        O      0.902595000000     0.055070000000     0.321910000000     0          
O        O      0.845235000000     0.070730000000     0.293227500000     0          
O        O      0.960310000000     0.070360000000     0.293365000000     0          
Si       Si     0.634470000000     0.456780000000     0.324835000000     0          
Si       Si     0.560360000000     0.456850000000     0.324832500000     0          
O        O      0.597405000000     0.444930000000     0.321910000000     0          
O        O      0.654765000000     0.429270000000     0.293227500000     0          
O        O      0.539690000000     0.429640000000     0.293365000000     0          
Si       Si     0.884470000000     0.293220000000     0.324835000000     0          
Si       Si     0.810360000000     0.293150000000     0.324832500000     0          
Si       Si     0.844725000000     0.402890000000     0.250000000000     0          
Si       Si     0.785710000000     0.346090000000     0.250000000000     0          
O        O      0.847405000000     0.305070000000     0.321910000000     0          
O        O      0.904765000000     0.320730000000     0.293227500000     0          
O        O      0.888665000000     0.250000000000     0.309367500000     0          
O        O      0.896470000000     0.297590000000     0.375000000000     0          
O        O      0.806295000000     0.250000000000     0.309070000000     0          
O        O      0.798320000000     0.297250000000     0.375000000000     0          
O        O      0.789690000000     0.320360000000     0.293365000000     0          
O        O      0.811825000000     0.379385000000     0.250000000000     0          
O        O      0.750000000000     0.363150000000     0.250000000000     0          
Si       Si     0.615530000000     0.206780000000     0.324835000000     0          
Si       Si     0.689640000000     0.206850000000     0.324832500000     0          
Si       Si     0.655275000000     0.097110000000     0.250000000000     0          
Si       Si     0.714290000000     0.153910000000     0.250000000000     0          
O        O      0.652595000000     0.194930000000     0.321910000000     0          
O        O      0.595235000000     0.179270000000     0.293227500000     0          
O        O      0.611335000000     0.250000000000     0.309367500000     0          
O        O      0.603530000000     0.202410000000     0.375000000000     0          
O        O      0.693705000000     0.250000000000     0.309070000000     0          
O        O      0.701680000000     0.202750000000     0.375000000000     0          
O        O      0.710310000000     0.179640000000     0.293365000000     0          
O        O      0.688175000000     0.120615000000     0.250000000000     0          
O        O      0.750000000000     0.136850000000     0.250000000000     0          
Si       Si     0.884470000000     0.206780000000     0.425165000000     0          
Si       Si     0.810360000000     0.206850000000     0.425167500000     0          
Si       Si     0.844725000000     0.097110000000     0.250000000000     0          
Si       Si     0.785710000000     0.153910000000     0.250000000000     0          
O        O      0.847405000000     0.194930000000     0.428090000000     0          
O        O      0.904765000000     0.179270000000     0.456772500000     0          
O        O      0.888665000000     0.250000000000     0.440632500000     0          
O        O      0.896470000000     0.202410000000     0.375000000000     0          
O        O      0.806295000000     0.250000000000     0.440930000000     0          
O        O      0.798320000000     0.202750000000     0.375000000000     0          
O        O      0.789690000000     0.179640000000     0.456635000000     0          
O        O      0.811825000000     0.120615000000     0.250000000000     0          
Si       Si     0.615530000000     0.293220000000     0.425165000000     0          
Si       Si     0.689640000000     0.293150000000     0.425167500000     0          
Si       Si     0.655275000000     0.402890000000     0.250000000000     0          
Si       Si     0.714290000000     0.346090000000     0.250000000000     0          
O        O      0.652595000000     0.305070000000     0.428090000000     0          
O        O      0.595235000000     0.320730000000     0.456772500000     0          
O        O      0.611335000000     0.250000000000     0.440632500000     0          
O        O      0.603530000000     0.297590000000     0.375000000000     0          
O        O      0.693705000000     0.250000000000     0.440930000000     0          
O        O      0.701680000000     0.297250000000     0.375000000000     0          
O        O      0.710310000000     0.320360000000     0.456635000000     0          
O        O      0.688175000000     0.379385000000     0.250000000000     0          
Si       Si     0.615530000000     0.206780000000     0.425165000000     0          
Si       Si     0.689640000000     0.206850000000     0.425167500000     0          
O        O      0.652595000000     0.194930000000     0.428090000000     0          
O        O      0.595235000000     0.179270000000     0.456772500000     0          
O        O      0.710310000000     0.179640000000     0.456635000000     0          
Si       Si     0.884470000000     0.293220000000     0.425165000000     0          
Si       Si     0.810360000000     0.293150000000     0.425167500000     0          
O        O      0.847405000000     0.305070000000     0.428090000000     0          
O        O      0.904765000000     0.320730000000     0.456772500000     0          
O        O      0.789690000000     0.320360000000     0.456635000000     0          
Si       Si     0.615530000000     0.293220000000     0.324835000000     0          
Si       Si     0.689640000000     0.293150000000     0.324832500000     0          
O        O      0.652595000000     0.305070000000     0.321910000000     0          
O        O      0.595235000000     0.320730000000     0.293227500000     0          
O        O      0.710310000000     0.320360000000     0.293365000000     0          
Si       Si     0.884470000000     0.206780000000     0.324835000000     0          
Si       Si     0.810360000000     0.206850000000     0.324832500000     0          
O        O      0.847405000000     0.194930000000     0.321910000000     0          
O        O      0.904765000000     0.179270000000     0.293227500000     0          
O        O      0.789690000000     0.179640000000     0.293365000000     0          
Si       Si     0.634470000000     0.043220000000     0.574835000000     0          
Si       Si     0.560360000000     0.043150000000     0.574832500000     0          
Si       Si     0.594725000000     0.152890000000     0.500000000000     0          
Si       Si     0.535710000000     0.096090000000     0.500000000000     0          
O        O      0.597405000000     0.055070000000     0.571910000000     0          
O        O      0.654765000000     0.070730000000     0.543227500000     0          
O        O      0.638665000000     0.000000000000     0.559367500000     0          
O        O      0.646470000000     0.047590000000     0.625000000000     0          
O        O      0.556295000000     0.000000000000     0.559070000000     0          
O        O      0.548320000000     0.047250000000     0.625000000000     0          
O        O      0.539690000000     0.070360000000     0.543365000000     0          
O        O      0.625000000000     0.125000000000     0.500000000000     0          
O        O      0.561825000000     0.129385000000     0.500000000000     0          
O        O      0.500000000000     0.113150000000     0.500000000000     0          
Si       Si     0.865530000000     0.456780000000     0.574835000000     0          
Si       Si     0.939640000000     0.456850000000     0.574832500000     0          
Si       Si     0.905275000000     0.347110000000     0.500000000000     0          
Si       Si     0.964290000000     0.403910000000     0.500000000000     0          
O        O      0.902595000000     0.444930000000     0.571910000000     0          
O        O      0.845235000000     0.429270000000     0.543227500000     0          
O        O      0.861335000000     0.000000000000     0.559367500000     0          
O        O      0.853530000000     0.452410000000     0.625000000000     0          
O        O      0.943705000000     0.000000000000     0.559070000000     0          
O        O      0.951680000000     0.452750000000     0.625000000000     0          
O        O      0.960310000000     0.429640000000     0.543365000000     0          
O        O      0.875000000000     0.375000000000     0.500000000000     0          
O        O      0.938175000000     0.370615000000     0.500000000000     0          
O        O      0.500000000000     0.386850000000     0.500000000000     0          
Si       Si     0.634470000000     0.456780000000     0.675165000000     0          
Si       Si     0.560360000000     0.456850000000     0.675167500000     0          
Si       Si     0.594725000000     0.347110000000     0.500000000000     0          
Si       Si     0.535710000000     0.403910000000     0.500000000000     0          
O        O      0.597405000000     0.444930000000     0.678090000000     0          
O        O      0.654765000000     0.429270000000     0.706772500000     0          
O        O      0.638665000000     0.000000000000     0.690632500000     0          
O        O      0.646470000000     0.452410000000     0.625000000000     0          
O        O      0.556295000000     0.000000000000     0.690930000000     0          
O        O      0.548320000000     0.452750000000     0.625000000000     0          
O        O      0.539690000000     0.429640000000     0.706635000000     0          
O        O      0.625000000000     0.375000000000     0.500000000000     0          
O        O      0.561825000000     0.370615000000     0.500000000000     0          
Si       Si     0.865530000000     0.043220000000     0.675165000000     0          
Si       Si     0.939640000000     0.043150000000     0.675167500000     0          
Si       Si     0.905275000000     0.152890000000     0.500000000000     0          
Si       Si     0.964290000000     0.096090000000     0.500000000000     0          
O        O      0.902595000000     0.055070000000     0.678090000000     0          
O        O      0.845235000000     0.070730000000     0.706772500000     0          
O        O      0.861335000000     0.000000000000     0.690632500000     0          
O        O      0.853530000000     0.047590000000     0.625000000000     0          
O        O      0.943705000000     0.000000000000     0.690930000000     0          
O        O      0.951680000000     0.047250000000     0.625000000000     0          
O        O      0.960310000000     0.070360000000     0.706635000000     0          
O        O      0.875000000000     0.125000000000     0.500000000000     0          
O        O      0.938175000000     0.129385000000     0.500000000000     0          
Si       Si     0.865530000000     0.456780000000     0.675165000000     0          
Si       Si     0.939640000000     0.456850000000     0.675167500000     0          
O        O      0.902595000000     0.444930000000     0.678090000000     0          
O        O      0.845235000000     0.429270000000     0.706772500000     0          
O        O      0.960310000000     0.429640000000     0.706635000000     0          
Si       Si     0.634470000000     0.043220000000     0.675165000000     0          
Si       Si     0.560360000000     0.043150000000     0.675167500000     0          
O        O      0.597405000000     0.055070000000     0.678090000000     0          
O        O      0.654765000000     0.070730000000     0.706772500000     0          
O        O      0.539690000000     0.070360000000     0.706635000000     0          
Si       Si     0.865530000000     0.043220000000     0.574835000000     0          
Si       Si     0.939640000000     0.043150000000     0.574832500000     0          
O        O      0.902595000000     0.055070000000     0.571910000000     0          
O        O      0.845235000000     0.070730000000     0.543227500000     0          
O        O      0.960310000000     0.070360000000     0.543365000000     0          
Si       Si     0.634470000000     0.456780000000     0.574835000000     0          
Si       Si     0.560360000000     0.456850000000     0.574832500000     0          
O        O      0.597405000000     0.444930000000     0.571910000000     0          
O        O      0.654765000000     0.429270000000     0.543227500000     0          
O        O      0.539690000000     0.429640000000     0.543365000000     0          
Si       Si     0.884470000000     0.293220000000     0.574835000000     0          
Si       Si     0.810360000000     0.293150000000     0.574832500000     0          
Si       Si     0.844725000000     0.402890000000     0.500000000000     0          
Si       Si     0.785710000000     0.346090000000     0.500000000000     0          
O        O      0.847405000000     0.305070000000     0.571910000000     0          
O        O      0.904765000000     0.320730000000     0.543227500000     0          
O        O      0.888665000000     0.250000000000     0.559367500000     0          
O        O      0.896470000000     0.297590000000     0.625000000000     0          
O        O      0.806295000000     0.250000000000     0.559070000000     0          
O        O      0.798320000000     0.297250000000     0.625000000000     0          
O        O      0.789690000000     0.320360000000     0.543365000000     0          
O        O      0.811825000000     0.379385000000     0.500000000000     0          
O        O      0.750000000000     0.363150000000     0.500000000000     0          
Si       Si     0.615530000000     0.206780000000     0.574835000000     0          
Si       Si     0.689640000000     0.206850000000     0.574832500000     0          
Si       Si     0.655275000000     0.097110000000     0.500000000000     0          
Si       Si     0.714290000000     0.153910000000     0.500000000000     0          
O        O      0.652595000000     0.194930000000     0.571910000000     0          
O        O      0.595235000000     0.179270000000     0.543227500000     0          
O        O      0.611335000000     0.250000000000     0.559367500000     0          
O        O      0.603530000000     0.202410000000     0.625000000000     0          
O        O      0.693705000000     0.250000000000     0.559070000000     0          
O        O      0.701680000000     0.202750000000     0.625000000000     0          
O        O      0.710310000000     0.179640000000     0.543365000000     0          
O        O      0.688175000000     0.120615000000     0.500000000000     0          
O        O      0.750000000000     0.136850000000     0.500000000000     0          
Si       Si     0.884470000000     0.206780000000     0.675165000000     0          
Si       Si     0.810360000000     0.206850000000     0.675167500000     0          
Si       Si     0.844725000000     0.097110000000     0.500000000000     0          
Si       Si     0.785710000000     0.153910000000     0.500000000000     0          
O        O      0.847405000000     0.194930000000     0.678090000000     0          
O        O      0.904765000000     0.179270000000     0.706772500000     0          
O        O      0.888665000000     0.250000000000     0.690632500000     0          
O        O      0.896470000000     0.202410000000     0.625000000000     0          
O        O      0.806295000000     0.250000000000     0.690930000000     0          
O        O      0.798320000000     0.202750000000     0.625000000000     0          
O        O      0.789690000000     0.179640000000     0.706635000000     0          
O        O      0.811825000000     0.120615000000     0.500000000000     0          
Si       Si     0.615530000000     0.293220000000     0.675165000000     0          
Si       Si     0.689640000000     0.293150000000     0.675167500000     0          
Si       Si     0.655275000000     0.402890000000     0.500000000000     0          
Si       Si     0.714290000000     0.346090000000     0.500000000000     0          
O        O      0.652595000000     0.305070000000     0.678090000000     0          
O        O      0.595235000000     0.320730000000     0.706772500000     0          
O        O      0.611335000000     0.250000000000     0.690632500000     0          
O        O      0.603530000000     0.297590000000     0.625000000000     0          
O        O      0.693705000000     0.250000000000     0.690930000000     0          
O        O      0.701680000000     0.297250000000     0.625000000000     0          
O        O      0.710310000000     0.320360000000     0.706635000000     0          
O        O      0.688175000000     0.379385000000     0.500000000000     0          
Si       Si     0.615530000000     0.206780000000     0.675165000000     0          
Si       Si     0.689640000000     0.206850000000     0.675167500000     0          
O        O      0.652595000000     0.194930000000     0.678090000000     0          
O        O      0.595235000000     0.179270000000     0.706772500000     0          
O        O      0.710310000000     0.179640000000     0.706635000000     0          
Si       Si     0.884470000000     0.293220000000     0.675165000000     0          
Si       Si     0.810360000000     0.293150000000     0.675167500000     0          
O        O      0.847405000000     0.305070000000     0.678090000000     0          
O        O      0.904765000000     0.320730000000     0.706772500000     0          
O        O      0.789690000000     0.320360000000     0.706635000000     0          
Si       Si     0.615530000000     0.293220000000     0.574835000000     0          
Si       Si     0.689640000000     0.293150000000     0.574832500000     0          
O        O      0.652595000000     0.305070000000     0.571910000000     0          
O        O      0.595235000000     0.320730000000     0.543227500000     0          
O        O      0.710310000000     0.320360000000     0.543365000000     0          
Si       Si     0.884470000000     0.206780000000     0.574835000000     0          
Si       Si     0.810360000000     0.206850000000     0.574832500000     0          
O        O      0.847405000000     0.194930000000     0.571910000000     0          
O        O      0.904765000000     0.179270000000     0.543227500000     0          
O        O      0.789690000000     0.179640000000     0.543365000000     0          
Si       Si     0.634470000000     0.043220000000     0.824835000000     0          
Si       Si     0.560360000000     0.043150000000     0.824832500000     0          
Si       Si     0.594725000000     0.152890000000     0.750000000000     0          
Si       Si     0.535710000000     0.096090000000     0.750000000000     0          
O        O      0.597405000000     0.055070000000     0.821910000000     0          
O        O      0.654765000000     0.070730000000     0.793227500000     0          
O        O      0.638665000000     0.000000000000     0.809367500000     0          
O        O      0.646470000000     0.047590000000     0.875000000000     0          
O        O      0.556295000000     0.000000000000     0.809070000000     0          
O        O      0.548320000000     0.047250000000     0.875000000000     0          
O        O      0.539690000000     0.070360000000     0.793365000000     0          
O        O      0.625000000000     0.125000000000     0.750000000000     0          
O        O      0.561825000000     0.129385000000     0.750000000000     0          
O        O      0.500000000000     0.113150000000     0.750000000000     0          
Si       Si     0.865530000000     0.456780000000     0.824835000000     0          
Si       Si     0.939640000000     0.456850000000     0.824832500000     0          
Si       Si     0.905275000000     0.347110000000     0.750000000000     0          
Si       Si     0.964290000000     0.403910000000     0.750000000000     0          
O        O      0.902595000000     0.444930000000     0.821910000000     0          
O        O      0.845235000000     0.429270000000     0.793227500000     0          
O        O      0.861335000000     0.000000000000     0.809367500000     0          
O        O      0.853530000000     0.452410000000     0.875000000000     0          
O        O      0.943705000000     0.000000000000     0.809070000000     0          
O        O      0.951680000000     0.452750000000     0.875000000000     0          
O        O      0.960310000000     0.429640000000     0.793365000000     0          
O        O      0.875000000000     0.375000000000     0.750000000000     0          
O        O      0.938175000000     0.370615000000     0.750000000000     0          
O        O      0.500000000000     0.386850000000     0.750000000000     0          
Si       Si     0.634470000000     0.456780000000     0.925165000000     0          
Si       Si     0.560360000000     0.456850000000     0.925167500000     0          
Si       Si     0.594725000000     0.347110000000     0.750000000000     0          
Si       Si     0.535710000000     0.403910000000     0.750000000000     0          
O        O      0.597405000000     0.444930000000     0.928090000000     0          
O        O      0.654765000000     0.429270000000     0.956772500000     0          
O        O      0.638665000000     0.000000000000     0.940632500000     0          
O        O      0.646470000000     0.452410000000     0.875000000000     0          
O        O      0.556295000000     0.000000000000     0.940930000000     0          
O        O      0.548320000000     0.452750000000     0.875000000000     0          
O        O      0.539690000000     0.429640000000     0.956635000000     0          
O        O      0.625000000000     0.375000000000     0.750000000000     0          
O        O      0.561825000000     0.370615000000     0.750000000000     0          
Si       Si     0.865530000000     0.043220000000     0.925165000000     0          
Si       Si     0.939640000000     0.043150000000     0.925167500000     0          
Si       Si     0.905275000000     0.152890000000     0.750000000000     0          
Si       Si     0.964290000000     0.096090000000     0.750000000000     0          
O        O      0.902595000000     0.055070000000     0.928090000000     0          
O        O      0.845235000000     0.070730000000     0.956772500000     0          
O        O      0.861335000000     0.000000000000     0.940632500000     0          
O        O      0.853530000000     0.047590000000     0.875000000000     0          
O        O      0.943705000000     0.000000000000     0.940930000000     0          
O        O      0.951680000000     0.047250000000     0.875000000000     0          
O        O      0.960310000000     0.070360000000     0.956635000000     0          
O        O      0.875000000000     0.125000000000     0.750000000000     0          
O        O      0.938175000000     0.129385000000     0.750000000000     0          
Si       Si     0.865530000000     0.456780000000     0.925165000000     0          
Si       Si     0.939640000000     0.456850000000     0.925167500000     0          
O        O      0.902595000000     0.444930000000     0.928090000000     0          
O        O      0.845235000000     0.429270000000     0.956772500000     0          
O        O      0.960310000000     0.429640000000     0.956635000000     0          
Si       Si     0.634470000000     0.043220000000     0.925165000000     0          
Si       Si     0.560360000000     0.043150000000     0.925167500000     0          
O        O      0.597405000000     0.055070000000     0.928090000000     0          
O        O      0.654765000000     0.070730000000     0.956772500000     0          
O        O      0.539690000000     0.070360000000     0.956635000000     0          
Si       Si     0.865530000000     0.043220000000     0.824835000000     0          
Si       Si     0.939640000000     0.043150000000     0.824832500000     0          
O        O      0.902595000000     0.055070000000     0.821910000000     0          
O        O      0.845235000000     0.070730000000     0.793227500000     0          
O        O      0.960310000000     0.070360000000     0.793365000000     0          
Si       Si     0.634470000000     0.456780000000     0.824835000000     0          
Si       Si     0.560360000000     0.456850000000     0.824832500000     0          
O        O      0.597405000000     0.444930000000     0.821910000000     0          
O        O      0.654765000000     0.429270000000     0.793227500000     0          
O        O      0.539690000000     0.429640000000     0.793365000000     0          
Si       Si     0.884470000000     0.293220000000     0.824835000000     0          
Si       Si     0.810360000000     0.293150000000     0.824832500000     0          
Si       Si     0.844725000000     0.402890000000     0.750000000000     0          
Si       Si     0.785710000000     0.346090000000     0.750000000000     0          
O        O      0.847405000000     0.305070000000     0.821910000000     0          
O        O      0.904765000000     0.320730000000     0.793227500000     0          
O        O      0.888665000000     0.250000000000     0.809367500000     0          
O        O      0.896470000000     0.297590000000     0.875000000000     0          
O        O      0.806295000000     0.250000000000     0.809070000000     0          
O        O      0.798320000000     0.297250000000     0.875000000000     0          
O        O      0.789690000000     0.320360000000     0.793365000000     0          
O        O      0.811825000000     0.379385000000     0.750000000000     0          
O        O      0.750000000000     0.363150000000     0.750000000000     0          
Si       Si     0.615530000000     0.206780000000     0.824835000000     0          
Si       Si     0.689640000000     0.206850000000     0.824832500000     0          
Si       Si     0.655275000000     0.097110000000     0.750000000000     0          
Si       Si     0.714290000000     0.153910000000     0.750000000000     0          
O        O      0.652595000000     0.194930000000     0.821910000000     0          
O        O      0.595235000000     0.179270000000     0.793227500000     0          
O        O      0.611335000000     0.250000000000     0.809367500000     0          
O        O      0.603530000000     0.202410000000     0.875000000000     0          
O        O      0.693705000000     0.250000000000     0.809070000000     0          
O        O      0.701680000000     0.202750000000     0.875000000000     0          
O        O      0.710310000000     0.179640000000     0.793365000000     0          
O        O      0.688175000000     0.120615000000     0.750000000000     0          
O        O      0.750000000000     0.136850000000     0.750000000000     0          
Si       Si     0.884470000000     0.206780000000     0.925165000000     0          
Si       Si     0.810360000000     0.206850000000     0.925167500000     0          
Si       Si     0.844725000000     0.097110000000     0.750000000000     0          
Si       Si     0.785710000000     0.153910000000     0.750000000000     0          
O        O      0.847405000000     0.194930000000     0.928090000000     0          
O        O      0.904765000000     0.179270000000     0.956772500000     0          
O        O      0.888665000000     0.250000000000     0.940632500000     0          
O        O      0.896470000000     0.202410000000     0.875000000000     0          
O        O      0.806295000000     0.250000000000     0.940930000000     0          
O        O      0.798320000000     0.202750000000     0.875000000000     0          
O        O      0.789690000000     0.179640000000     0.956635000000     0          
O        O      0.811825000000     0.120615000000     0.750000000000     0          
Si       Si     0.615530000000     0.293220000000     0.925165000000     0          
Si       Si     0.689640000000     0.293150000000     0.925167500000     0          
Si       Si     0.655275000000     0.402890000000     0.750000000000     0          
Si       Si     0.714290000000     0.346090000000     0.750000000000     0          
O        O      0.652595000000     0.305070000000     0.928090000000     0          
O        O      0.595235000000     0.320730000000     0.956772500000     0          
O        O      0.611335000000     0.250000000000     0.940632500000     0          
O        O      0.603530000000     0.297590000000     0.875000000000     0          
O        O      0.693705000000     0.250000000000     0.940930000000     0          
O        O      0.701680000000     0.297250000000     0.875000000000     0          
O        O      0.710310000000     0.320360000000     0.956635000000     0          
O        O      0.688175000000     0.379385000000     0.750000000000     0          
Si       Si     0.615530000000     0.206780000000     0.925165000000     0          
Si       Si     0.689640000000     0.206850000000     0.925167500000     0          
O        O      0.652595000000     0.194930000000     0.928090000000     0          
O        O      0.595235000000     0.179270000000     0.956772500000     0          
O        O      0.710310000000     0.179640000000     0.956635000000     0          
Si       Si     0.884470000000     0.293220000000     0.925165000000     0          
Si       Si     0.810360000000     0.293150000000     0.925167500000     0          
O        O      0.847405000000     0.305070000000     0.928090000000     0          
O        O      0.904765000000     0.320730000000     0.956772500000     0          
O        O      0.789690000000     0.320360000000     0.956635000000     0          
Si       Si     0.615530000000     0.293220000000     0.824835000000     0          
Si       Si     0.689640000000     0.293150000000     0.824832500000     0          
O        O      0.652595000000     0.305070000000     0.821910000000     0          
O        O      0.595235000000     0.320730000000     0.793227500000     0          
O        O      0.710310000000     0.320360000000     0.793365000000     0          
Si       Si     0.884470000000     0.206780000000     0.824835000000     0          
Si       Si     0.810360000000     0.206850000000     0.824832500000     0          
O        O      0.847405000000     0.194930000000     0.821910000000     0          
O        O      0.904765000000     0.179270000000     0.793227500000     0          
O        O      0.789690000000     0.179640000000     0.793365000000     0          
Si       Si     0.634470000000     0.543220000000     0.074835000000     0          
Si       Si     0.560360000000     0.543150000000     0.074832500000     0          
Si       Si     0.594725000000     0.652890000000     0.000000000000     0          
Si       Si     0.535710000000     0.596090000000     0.000000000000     0          
O        O      0.597405000000     0.555070000000     0.071910000000     0          
O        O      0.654765000000     0.570730000000     0.043227500000     0          
O        O      0.638665000000     0.500000000000     0.059367500000     0          
O        O      0.646470000000     0.547590000000     0.125000000000     0          
O        O      0.556295000000     0.500000000000     0.059070000000     0          
O        O      0.548320000000     0.547250000000     0.125000000000     0          
O        O      0.539690000000     0.570360000000     0.043365000000     0          
O        O      0.625000000000     0.625000000000     0.000000000000     0          
O        O      0.561825000000     0.629385000000     0.000000000000     0          
O        O      0.500000000000     0.613150000000     0.000000000000     0          
Si       Si     0.865530000000     0.956780000000     0.074835000000     0          
Si       Si     0.939640000000     0.956850000000     0.074832500000     0          
Si       Si     0.905275000000     0.847110000000     0.000000000000     0          
Si       Si     0.964290000000     0.903910000000     0.000000000000     0          
O        O      0.902595000000     0.944930000000     0.071910000000     0          
O        O      0.845235000000     0.929270000000     0.043227500000     0          
O        O      0.861335000000     0.500000000000     0.059367500000     0          
O        O      0.853530000000     0.952410000000     0.125000000000     0          
O        O      0.943705000000     0.500000000000     0.059070000000     0          
O        O      0.951680000000     0.952750000000     0.125000000000     0          
O        O      0.960310000000     0.929640000000     0.043365000000     0          
O        O      0.875000000000     0.875000000000     0.000000000000     0          
O        O      0.938175000000     0.870615000000     0.000000000000     0          
O        O      0.500000000000     0.886850000000     0.000000000000     0          
Si       Si     0.634470000000     0.956780000000     0.175165000000     0          
Si       Si     0.560360000000     0.956850000000     0.175167500000     0          
Si       Si     0.594725000000     0.847110000000     0.000000000000     0          
Si       Si     0.535710000000     0.903910000000     0.000000000000     0          
O        O      0.597405000000     0.944930000000     0.178090000000     0          
O        O      0.654765000000     0.929270000000     0.206772500000     0          
O        O      0.638665000000     0.500000000000     0.190632500000     0          
O        O      0.646470000000     0.952410000000     0.125000000000     0          
O        O      0.556295000000     0.500000000000     0.190930000000     0          
O        O      0.548320000000     0.952750000000     0.125000000000     0          
O        O      0.539690000000     0.929640000000     0.206635000000     0          
O        O      0.625000000000     0.875000000000     0.000000000000     0          
O        O      0.561825000000     0.870615000000     0.000000000000     0          
Si       Si     0.865530000000     0.543220000000     0.175165000000     0          
Si       Si     0.939640000000     0.543150000000     0.175167500000     0          
Si       Si     0.905275000000     0.652890000000     0.000000000000     0          
Si       Si     0.964290000000     0.596090000000     0.000000000000     0          
O        O      0.902595000000     0.555070000000     0.178090000000     0          
O        O      0.845235000000     0.570730000000     0.206772500000     0          
O        O      0.861335000000     0.500000000000     0.190632500000     0          
O        O      0.853530000000     0.547590000000     0.125000000000     0          
O        O      0.943705000000     0.500000000000     0.190930000000     0          
O        O      0.951680000000     0.547250000000     0.125000000000     0          
O        O      0.960310000000     0.570360000000     0.206635000000     0          
O        O      0.875000000000     0.625000000000     0.000000000000     0          
O        O      0.938175000000     0.629385000000     0.000000000000     0          
Si       Si     0.865530000000     0.956780000000     0.175165000000     0          
Si       Si     0.939640000000     0.956850000000     0.175167500000     0          
O        O      0.902595000000     0.944930000000     0.178090000000     0          
O        O      0.845235000000     0.929270000000     0.206772500000     0          
O        O      0.960310000000     0.929640000000     0.206635000000     0          
Si       Si     0.634470000000     0.543220000000     0.175165000000     0          
Si       Si     0.560360000000     0.543150000000     0.175167500000     0          
O        O      0.597405000000     0.555070000000     0.178090000000     0          
O        O      0.654765000000     0.570730000000     0.206772500000     0          
O        O      0.539690000000     0.570360000000     0.206635000000     0          
Si       Si     0.865530000000     0.543220000000     0.074835000000     0          
Si       Si     0.939640000000     0.543150000000     0.074832500000     0          
O        O      0.902595000000     0.555070000000     0.071910000000     0          
O        O      0.845235000000     0.570730000000     0.043227500000     0          
O        O      0.960310000000     0.570360000000     0.043365000000     0          
Si       Si     0.634470000000     0.956780000000     0.074835000000     0          
Si       Si     0.560360000000     0.956850000000     0.074832500000     0          
O        O      0.597405000000     0.944930000000     0.071910000000     0          
O        O      0.654765000000     0.929270000000     0.043227500000     0          
O        O      0.539690000000     0.929640000000     0.043365000000     0          
Si       Si     0.884470000000     0.793220000000     0.074835000000     0          
Si       Si     0.810360000000     0.793150000000     0.074832500000     0          
Si       Si     0.844725000000     0.902890000000     0.000000000000     0          
Si       Si     0.785710000000     0.846090000000     0.000000000000     0          
O        O      0.847405000000     0.805070000000     0.071910000000     0          
O        O      0.904765000000     0.820730000000     0.043227500000     0          
O        O      0.888665000000     0.750000000000     0.059367500000     0          
O        O      0.896470000000     0.797590000000     0.125000000000     0          
O        O      0.806295000000     0.750000000000     0.059070000000     0          
O        O      0.798320000000     0.797250000000     0.125000000000     0          
O        O      0.789690000000     0.820360000000     0.043365000000     0          
O        O      0.811825000000     0.879385000000     0.000000000000     0          
O        O      0.750000000000     0.863150000000     0.000000000000     0          
Si       Si     0.615530000000     0.706780000000     0.074835000000     0          
Si       Si     0.689640000000     0.706850000000     0.074832500000     0          
Si       Si     0.655275000000     0.597110000000     0.000000000000     0          
Si       Si     0.714290000000     0.653910000000     0.000000000000     0          
O        O      0.652595000000     0.694930000000     0.071910000000     0          
O        O      0.595235000000     0.679270000000     0.043227500000     0          
O        O      0.611335000000     0.750000000000     0.059367500000     0          
O        O      0.603530000000     0.702410000000     0.125000000000     0          
O        O      0.693705000000     0.750000000000     0.059070000000     0          
O        O      0.701680000000     0.702750000000     0.125000000000     0          
O        O      0.710310000000     0.679640000000     0.043365000000     0          
O        O      0.688175000000     0.620615000000     0.000000000000     0          
O        O      0.750000000000     0.636850000000     0.000000000000     0          
Si       Si     0.884470000000     0.706780000000     0.175165000000     0          
Si       Si     0.810360000000     0.706850000000     0.175167500000     0          
Si       Si     0.844725000000     0.597110000000     0.000000000000     0          
Si       Si     0.785710000000     0.653910000000     0.000000000000     0          
O        O      0.847405000000     0.694930000000     0.178090000000     0          
O        O      0.904765000000     0.679270000000     0.206772500000     0          
O        O      0.888665000000     0.750000000000     0.190632500000     0          
O        O      0.896470000000     0.702410000000     0.125000000000     0          
O        O      0.806295000000     0.750000000000     0.190930000000     0          
O        O      0.798320000000     0.702750000000     0.125000000000     0          
O        O      0.789690000000     0.679640000000     0.206635000000     0          
O        O      0.811825000000     0.620615000000     0.000000000000     0          
Si       Si     0.615530000000     0.793220000000     0.175165000000     0          
Si       Si     0.689640000000     0.793150000000     0.175167500000     0          
Si       Si     0.655275000000     0.902890000000     0.000000000000     0          
Si       Si     0.714290000000     0.846090000000     0.000000000000     0          
O        O      0.652595000000     0.805070000000     0.178090000000     0          
O        O      0.595235000000     0.820730000000     0.206772500000     0          
O        O      0.611335000000     0.750000000000     0.190632500000     0          
O        O      0.603530000000     0.797590000000     0.125000000000     0          
O        O      0.693705000000     0.750000000000     0.190930000000     0          
O        O      0.701680000000     0.797250000000     0.125000000000     0          
O        O      0.710310000000     0.820360000000     0.206635000000     0          
O        O      0.688175000000     0.879385000000     0.000000000000     0          
Si       Si     0.615530000000     0.706780000000     0.175165000000     0          
Si       Si     0.689640000000     0.706850000000     0.175167500000     0          
O        O      0.652595000000     0.694930000000     0.178090000000     0          
O        O      0.595235000000     0.679270000000     0.206772500000     0          
O        O      0.710310000000     0.679640000000     0.206635000000     0          
Si       Si     0.884470000000     0.793220000000     0.175165000000     0          
Si       Si     0.810360000000     0.793150000000     0.175167500000     0          
O        O      0.847405000000     0.805070000000     0.178090000000     0          
O        O      0.904765000000     0.820730000000     0.206772500000     0          
O        O      0.789690000000     0.820360000000     0.206635000000     0          
Si       Si     0.615530000000     0.793220000000     0.074835000000     0          
Si       Si     0.689640000000     0.793150000000     0.074832500000     0          
O        O      0.652595000000     0.805070000000     0.071910000000     0          
O        O      0.595235000000     0.820730000000     0.043227500000     0          
O        O      0.710310000000     0.820360000000     0.043365000000     0          
Si       Si     0.884470000000     0.706780000000     0.074835000000     0          
Si       Si     0.810360000000     0.706850000000     0.074832500000     0          
O        O      0.847405000000     0.694930000000     0.071910000000     0          
O        O      0.904765000000     0.679270000000     0.043227500000     0          
O        O      0.789690000000     0.679640000000     0.043365000000     0          
Si       Si     0.634470000000     0.543220000000     0.324835000000     0          
Si       Si     0.560360000000     0.543150000000     0.324832500000     0          
Si       Si     0.594725000000     0.652890000000     0.250000000000     0          
Si       Si     0.535710000000     0.596090000000     0.250000000000     0          
O        O      0.597405000000     0.555070000000     0.321910000000     0          
O        O      0.654765000000     0.570730000000     0.293227500000     0          
O        O      0.638665000000     0.500000000000     0.309367500000     0          
O        O      0.646470000000     0.547590000000     0.375000000000     0          
O        O      0.556295000000     0.500000000000     0.309070000000     0          
O        O      0.548320000000     0.547250000000     0.375000000000     0          
O        O      0.539690000000     0.570360000000     0.293365000000     0          
O        O      0.625000000000     0.625000000000     0.250000000000     0          
O        O      0.561825000000     0.629385000000     0.250000000000     0          
O        O      0.500000000000     0.613150000000     0.250000000000     0          
Si       Si     0.865530000000     0.956780000000     0.324835000000     0          
Si       Si     0.939640000000     0.956850000000     0.324832500000     0          
Si       Si     0.905275000000     0.847110000000     0.250000000000     0          
Si       Si     0.964290000000     0.903910000000     0.250000000000     0          
O        O      0.902595000000     0.944930000000     0.321910000000     0          
O        O      0.845235000000     0.929270000000     0.293227500000     0          
O        O      0.861335000000     0.500000000000     0.309367500000     0          
O        O      0.853530000000     0.952410000000     0.375000000000     0          
O        O      0.943705000000     0.500000000000     0.309070000000     0          
O        O      0.951680000000     0.952750000000     0.375000000000     0          
O        O      0.960310000000     0.929640000000     0.293365000000     0          
O        O      0.875000000000     0.875000000000     0.250000000000     0          
O        O      0.938175000000     0.870615000000     0.250000000000     0          
O        O      0.500000000000     0.886850000000     0.250000000000     0          
Si       Si     0.634470000000     0.956780000000     0.425165000000     0          
Si       Si     0.560360000000     0.956850000000     0.425167500000     0          
Si       Si     0.594725000000     0.847110000000     0.250000000000     0          
Si       Si     0.535710000000     0.903910000000     0.250000000000     0          
O        O      0.597405000000     0.944930000000     0.428090000000     0          
O        O      0.654765000000     0.929270000000     0.456772500000     0          
O        O      0.638665000000     0.500000000000     0.440632500000     0          
O        O      0.646470000000     0.952410000000     0.375000000000     0          
O        O      0.556295000000     0.500000000000     0.440930000000     0          
O        O      0.548320000000     0.952750000000     0.375000000000     0          
O        O      0.539690000000     0.929640000000     0.456635000000     0          
O        O      0.625000000000     0.875000000000     0.250000000000     0          
O        O      0.561825000000     0.870615000000     0.250000000000     0          
Si       Si     0.865530000000     0.543220000000     0.425165000000     0          
Si       Si     0.939640000000     0.543150000000     0.425167500000     0          
Si       Si     0.905275000000     0.652890000000     0.250000000000     0          
Si       Si     0.964290000000     0.596090000000     0.250000000000     0          
O        O      0.902595000000     0.555070000000     0.428090000000     0          
O        O      0.845235000000     0.570730000000     0.456772500000     0          
O        O      0.861335000000     0.500000000000     0.440632500000     0          
O        O      0.853530000000     0.547590000000     0.375000000000     0          
O        O      0.943705000000     0.500000000000     0.440930000000     0          
O        O      0.951680000000     0.547250000000     0.375000000000     0          
O        O      0.960310000000     0.570360000000     0.456635000000     0          
O        O      0.875000000000     0.625000000000     0.250000000000     0          
O        O      0.938175000000     0.629385000000     0.250000000000     0          
Si       Si     0.865530000000     0.956780000000     0.425165000000     0          
Si       Si     0.939640000000     0.956850000000     0.425167500000     0          
O        O      0.902595000000     0.944930000000     0.428090000000     0          
O        O      0.845235000000     0.929270000000     0.456772500000     0          
O        O      0.960310000000     0.929640000000     0.456635000000     0          
Si       Si     0.634470000000     0.543220000000     0.425165000000     0          
Si       Si     0.560360000000     0.543150000000     0.425167500000     0          
O        O      0.597405000000     0.555070000000     0.428090000000     0          
O        O      0.654765000000     0.570730000000     0.456772500000     0          
O        O      0.539690000000     0.570360000000     0.456635000000     0          
Si       Si     0.865530000000     0.543220000000     0.324835000000     0          
Si       Si     0.939640000000     0.543150000000     0.324832500000     0          
O        O      0.902595000000     0.555070000000     0.321910000000     0          
O        O      0.845235000000     0.570730000000     0.293227500000     0          
O        O      0.960310000000     0.570360000000     0.293365000000     0          
Si       Si     0.634470000000     0.956780000000     0.324835000000     0          
Si       Si     0.560360000000     0.956850000000     0.324832500000     0          
O        O      0.597405000000     0.944930000000     0.321910000000     0          
O        O      0.654765000000     0.929270000000     0.293227500000     0          
O        O      0.539690000000     0.929640000000     0.293365000000     0          
Si       Si     0.884470000000     0.793220000000     0.324835000000     0          
Si       Si     0.810360000000     0.793150000000     0.324832500000     0          
Si       Si     0.844725000000     0.902890000000     0.250000000000     0          
Si       Si     0.785710000000     0.846090000000     0.250000000000     0          
O        O      0.847405000000     0.805070000000     0.321910000000     0          
O        O      0.904765000000     0.820730000000     0.293227500000     0          
O        O      0.888665000000     0.750000000000     0.309367500000     0          
O        O      0.896470000000     0.797590000000     0.375000000000     0          
O        O      0.806295000000     0.750000000000     0.309070000000     0          
O        O      0.798320000000     0.797250000000     0.375000000000     0          
O        O      0.789690000000     0.820360000000     0.293365000000     0          
O        O      0.811825000000     0.879385000000     0.250000000000     0          
O        O      0.750000000000     0.863150000000     0.250000000000     0          
Si       Si     0.615530000000     0.706780000000     0.324835000000     0          
Si       Si     0.689640000000     0.706850000000     0.324832500000     0          
Si       Si     0.655275000000     0.597110000000     0.250000000000     0          
Si       Si     0.714290000000     0.653910000000     0.250000000000     0          
O        O      0.652595000000     0.694930000000     0.321910000000     0          
O        O      0.595235000000     0.679270000000     0.293227500000     0          
O        O      0.611335000000     0.750000000000     0.309367500000     0          
O        O      0.603530000000     0.702410000000     0.375000000000     0          
O        O      0.693705000000     0.750000000000     0.309070000000     0          
O        O      0.701680000000     0.702750000000     0.375000000000     0          
O        O      0.710310000000     0.679640000000     0.293365000000     0          
O        O      0.688175000000     0.620615000000     0.250000000000     0          
O        O      0.750000000000     0.636850000000     0.250000000000     0          
Si       Si     0.884470000000     0.706780000000     0.425165000000     0          
Si       Si     0.810360000000     0.706850000000     0.425167500000     0          
Si       Si     0.844725000000     0.597110000000     0.250000000000     0          
Si       Si     0.785710000000     0.653910000000     0.250000000000     0          
O        O      0.847405000000     0.694930000000     0.428090000000     0          
O        O      0.904765000000     0.679270000000     0.456772500000     0          
O        O      0.888665000000     0.750000000000     0.440632500000     0          
O        O      0.896470000000     0.702410000000     0.375000000000     0          
O        O      0.806295000000     0.750000000000     0.440930000000     0          
O        O      0.798320000000     0.702750000000     0.375000000000     0          
O        O      0.789690000000     0.679640000000     0.456635000000     0          
O        O      0.811825000000     0.620615000000     0.250000000000     0          
Si       Si     0.615530000000     0.793220000000     0.425165000000     0          
Si       Si     0.689640000000     0.793150000000     0.425167500000     0          
Si       Si     0.655275000000     0.902890000000     0.250000000000     0          
Si       Si     0.714290000000     0.846090000000     0.250000000000     0          
O        O      0.652595000000     0.805070000000     0.428090000000     0          
O        O      0.595235000000     0.820730000000     0.456772500000     0          
O        O      0.611335000000     0.750000000000     0.440632500000     0          
O        O      0.603530000000     0.797590000000     0.375000000000     0          
O        O      0.693705000000     0.750000000000     0.440930000000     0          
O        O      0.701680000000     0.797250000000     0.375000000000     0          
O        O      0.710310000000     0.820360000000     0.456635000000     0          
O        O      0.688175000000     0.879385000000     0.250000000000     0          
Si       Si     0.615530000000     0.706780000000     0.425165000000     0          
Si       Si     0.689640000000     0.706850000000     0.425167500000     0          
O        O      0.652595000000     0.694930000000     0.428090000000     0          
O        O      0.595235000000     0.679270000000     0.456772500000     0          
O        O      0.710310000000     0.679640000000     0.456635000000     0          
Si       Si     0.884470000000     0.793220000000     0.425165000000     0          
Si       Si     0.810360000000     0.793150000000     0.425167500000     0          
O        O      0.847405000000     0.805070000000     0.428090000000     0          
O        O      0.904765000000     0.820730000000     0.456772500000     0          
O        O      0.789690000000     0.820360000000     0.456635000000     0          
Si       Si     0.615530000000     0.793220000000     0.324835000000     0          
Si       Si     0.689640000000     0.793150000000     0.324832500000     0          
O        O      0.652595000000     0.805070000000     0.321910000000     0          
O        O      0.595235000000     0.820730000000     0.293227500000     0          
O        O      0.710310000000     0.820360000000     0.293365000000     0          
Si       Si     0.884470000000     0.706780000000     0.324835000000     0          
Si       Si     0.810360000000     0.706850000000     0.324832500000     0          
O        O      0.847405000000     0.694930000000     0.321910000000     0          
O        O      0.904765000000     0.679270000000     0.293227500000     0          
O        O      0.789690000000     0.679640000000     0.293365000000     0          
Si       Si     0.634470000000     0.543220000000     0.574835000000     0          
Si       Si     0.560360000000     0.543150000000     0.574832500000     0          
Si       Si     0.594725000000     0.652890000000     0.500000000000     0          
Si       Si     0.535710000000     0.596090000000     0.500000000000     0          
O        O      0.597405000000     0.555070000000     0.571910000000     0          
O        O      0.654765000000     0.570730000000     0.543227500000     0          
O        O      0.638665000000     0.500000000000     0.559367500000     0          
O        O      0.646470000000     0.547590000000     0.625000000000     0          
O        O      0.556295000000     0.500000000000     0.559070000000     0          
O        O      0.548320000000     0.547250000000     0.625000000000     0          
O        O      0.539690000000     0.570360000000     0.543365000000     0          
O        O      0.625000000000     0.625000000000     0.500000000000     0          
O        O      0.561825000000     0.629385000000     0.500000000000     0          
O        O      0.500000000000     0.613150000000     0.500000000000     0          
Si       Si     0.865530000000     0.956780000000     0.574835000000     0          
Si       Si     0.939640000000     0.956850000000     0.574832500000     0          
Si       Si     0.905275000000     0.847110000000     0.500000000000     0          
Si       Si     0.964290000000     0.903910000000     0.500000000000     0          
O        O      0.902595000000     0.944930000000     0.571910000000     0          
O        O      0.845235000000     0.929270000000     0.543227500000     0          
O        O      0.861335000000     0.500000000000     0.559367500000     0          
O        O      0.853530000000     0.952410000000     0.625000000000     0          
O        O      0.943705000000     0.500000000000     0.559070000000     0          
O        O      0.951680000000     0.952750000000     0.625000000000     0          
O        O      0.960310000000     0.929640000000     0.543365000000     0          
O        O      0.875000000000     0.875000000000     0.500000000000     0          
O        O      0.938175000000     0.870615000000     0.500000000000     0          
O        O      0.500000000000     0.886850000000     0.500000000000     0          
Si       Si     0.634470000000     0.956780000000     0.675165000000     0          
Si       Si     0.560360000000     0.956850000000     0.675167500000     0          
Si       Si     0.594725000000     0.847110000000     0.500000000000     0          
Si       Si     0.535710000000     0.903910000000     0.500000000000     0          
O        O      0.597405000000     0.944930000000     0.678090000000     0          
O        O      0.654765000000     0.929270000000     0.706772500000     0          
O        O      0.638665000000     0.500000000000     0.690632500000     0          
O        O      0.646470000000     0.952410000000     0.625000000000     0          
O        O      0.556295000000     0.500000000000     0.690930000000     0          
O        O      0.548320000000     0.952750000000     0.625000000000     0          
O        O      0.539690000000     0.929640000000     0.706635000000     0          
O        O      0.625000000000     0.875000000000     0.500000000000     0          
O        O      0.561825000000     0.870615000000     0.500000000000     0          
Si       Si     0.865530000000     0.543220000000     0.675165000000     0          
Si       Si     0.939640000000     0.543150000000     0.675167500000     0          
Si       Si     0.905275000000     0.652890000000     0.500000000000     0          
Si       Si     0.964290000000     0.596090000000     0.500000000000     0          
O        O      0.902595000000     0.555070000000     0.678090000000     0          
O        O      0.845235000000     0.570730000000     0.706772500000     0          
O        O      0.861335000000     0.500000000000     0.690632500000     0          
O        O      0.853530000000     0.547590000000     0.625000000000     0          
O        O      0.943705000000     0.500000000000     0.690930000000     0          
O        O      0.951680000000     0.547250000000     0.625000000000     0          
O        O      0.960310000000     0.570360000000     0.706635000000     0          
O        O      0.875000000000     0.625000000000     0.500000000000     0          
O        O      0.938175000000     0.629385000000     0.500000000000     0          
Si       Si     0.865530000000     0.956780000000     0.675165000000     0          
Si       Si     0.939640000000     0.956850000000     0.675167500000     0          
O        O      0.902595000000     0.944930000000     0.678090000000     0          
O        O      0.845235000000     0.929270000000     0.706772500000     0          
O        O      0.960310000000     0.929640000000     0.706635000000     0          
Si       Si     0.634470000000     0.543220000000     0.675165000000     0          
Si       Si     0.560360000000     0.543150000000     0.675167500000     0          
O        O      0.597405000000     0.555070000000     0.678090000000     0          
O        O      0.654765000000     0.570730000000     0.706772500000     0          
O        O      0.539690000000     0.570360000000     0.706635000000     0          
Si       Si     0.865530000000     0.543220000000     0.574835000000     0          
Si       Si     0.939640000000     0.543150000000     0.574832500000     0          
O        O      0.902595000000     0.555070000000     0.571910000000     0          
O        O      0.845235000000     0.570730000000     0.543227500000     0          
O        O      0.960310000000     0.570360000000     0.543365000000     0          
Si       Si     0.634470000000     0.956780000000     0.574835000000     0          
Si       Si     0.560360000000     0.956850000000     0.574832500000     0          
O        O      0.597405000000     0.944930000000     0.571910000000     0          
O        O      0.654765000000     0.929270000000     0.543227500000     0          
O        O      0.539690000000     0.929640000000     0.543365000000     0          
Si       Si     0.884470000000     0.793220000000     0.574835000000     0          
Si       Si     0.810360000000     0.793150000000     0.574832500000     0          
Si       Si     0.844725000000     0.902890000000     0.500000000000     0          
Si       Si     0.785710000000     0.846090000000     0.500000000000     0          
O        O      0.847405000000     0.805070000000     0.571910000000     0          
O        O      0.904765000000     0.820730000000     0.543227500000     0          
O        O      0.888665000000     0.750000000000     0.559367500000     0          
O        O      0.896470000000     0.797590000000     0.625000000000     0          
O        O      0.806295000000     0.750000000000     0.559070000000     0          
O        O      0.798320000000     0.797250000000     0.625000000000     0          
O        O      0.789690000000     0.820360000000     0.543365000000     0          
O        O      0.811825000000     0.879385000000     0.500000000000     0          
O        O      0.750000000000     0.863150000000     0.500000000000     0          
Si       Si     0.615530000000     0.706780000000     0.574835000000     0          
Si       Si     0.689640000000     0.706850000000     0.574832500000     0          
Si       Si     0.655275000000     0.597110000000     0.500000000000     0          
Si       Si     0.714290000000     0.653910000000     0.500000000000     0          
O        O      0.652595000000     0.694930000000     0.571910000000     0          
O        O      0.595235000000     0.679270000000     0.543227500000     0          
O        O      0.611335000000     0.750000000000     0.559367500000     0          
O        O      0.603530000000     0.702410000000     0.625000000000     0          
O        O      0.693705000000     0.750000000000     0.559070000000     0          
O        O      0.701680000000     0.702750000000     0.625000000000     0          
O        O      0.710310000000     0.679640000000     0.543365000000     0          
O        O      0.688175000000     0.620615000000     0.500000000000     0          
O        O      0.750000000000     0.636850000000     0.500000000000     0          
Si       Si     0.884470000000     0.706780000000     0.675165000000     0          
Si       Si     0.810360000000     0.706850000000     0.675167500000     0          
Si       Si     0.844725000000     0.597110000000     0.500000000000     0          
Si       Si     0.785710000000     0.653910000000     0.500000000000     0          
O        O      0.847405000000     0.694930000000     0.678090000000     0          
O        O      0.904765000000     0.679270000000     0.706772500000     0          
O        O      0.888665000000     0.750000000000     0.690632500000     0          
O        O      0.896470000000     0.702410000000     0.625000000000     0          
O        O      0.806295000000     0.750000000000     0.690930000000     0          
O        O      0.798320000000     0.702750000000     0.625000000000     0          
O        O      0.789690000000     0.679640000000     0.706635000000     0          
O        O      0.811825000000     0.620615000000     0.500000000000     0          
Si       Si     0.615530000000     0.793220000000     0.675165000000     0          
Si       Si     0.689640000000     0.793150000000     0.675167500000     0          
Si       Si     0.655275000000     0.902890000000     0.500000000000     0          
Si       Si     0.714290000000     0.846090000000     0.500000000000     0          
O        O      0.652595000000     0.805070000000     0.678090000000     0          
O        O      0.595235000000     0.820730000000     0.706772500000     0          
O        O      0.611335000000     0.750000000000     0.690632500000     0          
O        O      0.603530000000     0.797590000000     0.625000000000     0          
O        O      0.693705000000     0.750000000000     0.690930000000     0          
O        O      0.701680000000     0.797250000000     0.625000000000     0          
O        O      0.710310000000     0.820360000000     0.706635000000     0          
O        O      0.688175000000     0.879385000000     0.500000000000     0          
Si       Si     0.615530000000     0.706780000000     0.675165000000     0          
Si       Si     0.689640000000     0.706850000000     0.675167500000     0          
O        O      0.652595000000     0.694930000000     0.678090000000     0          
O        O      0.595235000000     0.679270000000     0.706772500000     0          
O        O      0.710310000000     0.679640000000     0.706635000000     0          
Si       Si     0.884470000000     0.793220000000     0.675165000000     0          
Si       Si     0.810360000000     0.793150000000     0.675167500000     0          
O        O      0.847405000000     0.805070000000     0.678090000000     0          
O        O      0.904765000000     0.820730000000     0.706772500000     0          
O        O      0.789690000000     0.820360000000     0.706635000000     0          
Si       Si     0.615530000000     0.793220000000     0.574835000000     0          
Si       Si     0.689640000000     0.793150000000     0.574832500000     0          
O        O      0.652595000000     0.805070000000     0.571910000000     0          
O        O      0.595235000000     0.820730000000     0.543227500000     0          
O        O      0.710310000000     0.820360000000     0.543365000000     0          
Si       Si     0.884470000000     0.706780000000     0.574835000000     0          
Si       Si     0.810360000000     0.706850000000     0.574832500000     0          
O        O      0.847405000000     0.694930000000     0.571910000000     0          
O        O      0.904765000000     0.679270000000     0.543227500000     0          
O        O      0.789690000000     0.679640000000     0.543365000000     0          
Si       Si     0.634470000000     0.543220000000     0.824835000000     0          
Si       Si     0.560360000000     0.543150000000     0.824832500000     0          
Si       Si     0.594725000000     0.652890000000     0.750000000000     0          
Si       Si     0.535710000000     0.596090000000     0.750000000000     0          
O        O      0.597405000000     0.555070000000     0.821910000000     0          
O        O      0.654765000000     0.570730000000     0.793227500000     0          
O        O      0.638665000000     0.500000000000     0.809367500000     0          
O        O      0.646470000000     0.547590000000     0.875000000000     0          
O        O      0.556295000000     0.500000000000     0.809070000000     0          
O        O      0.548320000000     0.547250000000     0.875000000000     0          
O        O      0.539690000000     0.570360000000     0.793365000000     0          
O        O      0.625000000000     0.625000000000     0.750000000000     0          
O        O      0.561825000000     0.629385000000     0.750000000000     0          
O        O      0.500000000000     0.613150000000     0.750000000000     0          
Si       Si     0.865530000000     0.956780000000     0.824835000000     0          
Si       Si     0.939640000000     0.956850000000     0.824832500000     0          
Si       Si     0.905275000000     0.847110000000     0.750000000000     0          
Si       Si     0.964290000000     0.903910000000     0.750000000000     0          
O        O      0.902595000000     0.944930000000     0.821910000000     0          
O        O      0.845235000000     0.929270000000     0.793227500000     0          
O        O      0.861335000000     0.500000000000     0.809367500000     0          
O        O      0.853530000000     0.952410000000     0.875000000000     0          
O        O      0.943705000000     0.500000000000     0.809070000000     0          
O        O      0.951680000000     0.952750000000     0.875000000000     0          
O        O      0.960310000000     0.929640000000     0.793365000000     0          
O        O      0.875000000000     0.875000000000     0.750000000000     0          
O        O      0.938175000000     0.870615000000     0.750000000000     0          
O        O      0.500000000000     0.886850000000     0.750000000000     0          
Si       Si     0.634470000000     0.956780000000     0.925165000000     0          
Si       Si     0.560360000000     0.956850000000     0.925167500000     0          
Si       Si     0.594725000000     0.847110000000     0.750000000000     0          
Si       Si     0.535710000000     0.903910000000     0.750000000000     0          
O        O      0.597405000000     0.944930000000     0.928090000000     0          
O        O      0.654765000000     0.929270000000     0.956772500000     0          
O        O      0.638665000000     0.500000000000     0.940632500000     0          
O        O      0.646470000000     0.952410000000     0.875000000000     0          
O        O      0.556295000000     0.500000000000     0.940930000000     0          
O        O      0.548320000000     0.952750000000     0.875000000000     0          
O        O      0.539690000000     0.929640000000     0.956635000000     0          
O        O      0.625000000000     0.875000000000     0.750000000000     0          
O        O      0.561825000000     0.870615000000     0.750000000000     0          
Si       Si     0.865530000000     0.543220000000     0.925165000000     0          
Si       Si     0.939640000000     0.543150000000     0.925167500000     0          
Si       Si     0.905275000000     0.652890000000     0.750000000000     0          
Si       Si     0.964290000000     0.596090000000     0.750000000000     0          
O        O      0.902595000000     0.555070000000     0.928090000000     0          
O        O      0.845235000000     0.570730000000     0.956772500000     0          
O        O      0.861335000000     0.500000000000     0.940632500000     0          
O        O      0.853530000000     0.547590000000     0.875000000000     0          
O        O      0.943705000000     0.500000000000     0.940930000000     0          
O        O      0.951680000000     0.547250000000     0.875000000000     0          
O        O      0.960310000000     0.570360000000     0.956635000000     0          
O        O      0.875000000000     0.625000000000     0.750000000000     0          
O        O      0.938175000000     0.629385000000     0.750000000000     0          
Si       Si     0.865530000000     0.956780000000     0.925165000000     0          
Si       Si     0.939640000000     0.956850000000     0.925167500000     0          
O        O      0.902595000000     0.944930000000     0.928090000000     0          
O        O      0.845235000000     0.929270000000     0.956772500000     0          
O        O      0.960310000000     0.929640000000     0.956635000000     0          
Si       Si     0.634470000000     0.543220000000     0.925165000000     0          
Si       Si     0.560360000000     0.543150000000     0.925167500000     0          
O        O      0.597405000000     0.555070000000     0.928090000000     0          
O        O      0.654765000000     0.570730000000     0.956772500000     0          
O        O      0.539690000000     0.570360000000     0.956635000000     0          
Si       Si     0.865530000000     0.543220000000     0.824835000000     0          
Si       Si     0.939640000000     0.543150000000     0.824832500000     0          
O        O      0.902595000000     0.555070000000     0.821910000000     0          
O        O      0.845235000000     0.570730000000     0.793227500000     0          
O        O      0.960310000000     0.570360000000     0.793365000000     0          
Si       Si     0.634470000000     0.956780000000     0.824835000000     0          
Si       Si     0.560360000000     0.956850000000     0.824832500000     0          
O        O      0.597405000000     0.944930000000     0.821910000000     0          
O        O      0.654765000000     0.929270000000     0.793227500000     0          
O        O      0.539690000000     0.929640000000     0.793365000000     0          
Si       Si     0.884470000000     0.793220000000     0.824835000000     0          
Si       Si     0.810360000000     0.793150000000     0.824832500000     0          
Si       Si     0.844725000000     0.902890000000     0.750000000000     0          
Si       Si     0.785710000000     0.846090000000     0.750000000000     0          
O        O      0.847405000000     0.805070000000     0.821910000000     0          
O        O      0.904765000000     0.820730000000     0.793227500000     0          
O        O      0.888665000000     0.750000000000     0.809367500000     0          
O        O      0.896470000000     0.797590000000     0.875000000000     0          
O        O      0.806295000000     0.750000000000     0.809070000000     0          
O        O      0.798320000000     0.797250000000     0.875000000000     0          
O        O      0.789690000000     0.820360000000     0.793365000000     0          
O        O      0.811825000000     0.879385000000     0.750000000000     0          
O        O      0.750000000000     0.863150000000     0.750000000000     0          
Si       Si     0.615530000000     0.706780000000     0.824835000000     0          
Si       Si     0.689640000000     0.706850000000     0.824832500000     0          
Si       Si     0.655275000000     0.597110000000     0.750000000000     0          
Si       Si     0.714290000000     0.653910000000     0.750000000000     0          
O        O      0.652595000000     0.694930000000     0.821910000000     0          
O        O      0.595235000000     0.679270000000     0.793227500000     0          
O        O      0.611335000000     0.750000000000     0.809367500000     0          
O        O      0.603530000000     0.702410000000     0.875000000000     0          
O        O      0.693705000000     0.750000000000     0.809070000000     0          
O        O      0.701680000000     0.702750000000     0.875000000000     0          
O        O      0.710310000000     0.679640000000     0.793365000000     0          
O        O      0.688175000000     0.620615000000     0.750000000000     0          
O        O      0.750000000000     0.636850000000     0.750000000000     0          
Si       Si     0.884470000000     0.706780000000     0.925165000000     0          
Si       Si     0.810360000000     0.706850000000     0.925167500000     0          
Si       Si     0.844725000000     0.597110000000     0.750000000000     0          
Si       Si     0.785710000000     0.653910000000     0.750000000000     0          
O        O      0.847405000000     0.694930000000     0.928090000000     0          
O        O      0.904765000000     0.679270000000     0.956772500000     0          
O        O      0.888665000000     0.750000000000     0.940632500000     0          
O        O      0.896470000000     0.702410000000     0.875000000000     0          
O        O      0.806295000000     0.750000000000     0.940930000000     0          
O        O      0.798320000000     0.702750000000     0.875000000000     0          
O        O      0.789690000000     0.679640000000     0.956635000000     0          
O        O      0.811825000000     0.620615000000     0.750000000000     0          
Si       Si     0.615530000000     0.793220000000     0.925165000000     0          
Si       Si     0.689640000000     0.793150000000     0.925167500000     0          
Si       Si     0.655275000000     0.902890000000     0.750000000000     0          
Si       Si     0.714290000000     0.846090000000     0.750000000000     0          
O        O      0.652595000000     0.805070000000     0.928090000000     0          
O        O      0.595235000000     0.820730000000     0.956772500000     0          
O        O      0.611335000000     0.750000000000     0.940632500000     0          
O        O      0.603530000000     0.797590000000     0.875000000000     0          
O        O      0.693705000000     0.750000000000     0.940930000000     0          
O        O      0.701680000000     0.797250000000     0.875000000000     0          
O        O      0.710310000000     0.820360000000     0.956635000000     0          
O        O      0.688175000000     0.879385000000     0.750000000000     0          
Si       Si     0.615530000000     0.706780000000     0.925165000000     0          
Si       Si     0.689640000000     0.706850000000     0.925167500000     0          
O        O      0.652595000000     0.694930000000     0.928090000000     0          
O        O      0.595235000000     0.679270000000     0.956772500000     0          
O        O      0.710310000000     0.679640000000     0.956635000000     0          
Si       Si     0.884470000000     0.793220000000     0.925165000000     0          
Si       Si     0.810360000000     0.793150000000     0.925167500000     0          
O        O      0.847405000000     0.805070000000     0.928090000000     0          
O        O      0.904765000000     0.820730000000     0.956772500000     0          
O        O      0.789690000000     0.820360000000     0.956635000000     0          
Si       Si     0.615530000000     0.793220000000     0.824835000000     0          
Si       Si     0.689640000000     0.793150000000     0.824832500000     0          
O        O      0.652595000000     0.805070000000     0.821910000000     0          
O        O      0.595235000000     0.820730000000     0.793227500000     0          
O        O      0.710310000000     0.820360000000     0.793365000000     0          
Si       Si     0.884470000000     0.706780000000     0.824835000000     0          
Si       Si     0.810360000000     0.706850000000     0.824832500000     0          
O        O      0.847405000000     0.694930000000     0.821910000000     0          
O        O      0.904765000000     0.679270000000     0.793227500000     0          
O        O      0.789690000000     0.679640000000     0.793365000000     0          


