data_zeolite

_audit_creation_method RASPA-1.0
_audit_creation_date 2021-6-6
_audit_author_name ''

_cell_length_a    39.189
_cell_length_b    39.189
_cell_length_c    30.26
_cell_angle_alpha 90
_cell_angle_beta  90
_cell_angle_gamma 120
_cell_volume      40246.5

_symmetry_cell_setting          hexagonal
_symmetry_space_group_name_Hall 'P 1'
_symmetry_space_group_name_H-M  'P 1'
_symmetry_Int_Tables_number     1

_symmetry_equiv_pos_as_xyz 'x,y,z'

loop_
_atom_site_label
_atom_site_type_symbol
_atom_site_fract_x
_atom_site_fract_y
_atom_site_fract_z
_atom_site_charge
O        O      0.032033333333     0.064033333333     0.056100000000     0          
O        O      0.290600000000     0.042733333333     0.065450000000     0          
O        O      0.012166666667     0.115900000000     0.081575000000     0          
O        O      0.331666666667     0.089300000000     0.000000000000     0          
O        O      0.078633333333     0.157266666667     0.125000000000     0          
O        O      0.025200000000     0.179266666667     0.125000000000     0          
T        Si     0.333266666667     0.078000000000     0.050800000000     0          
T        Si     0.032133333333     0.142133333333     0.125000000000     0          
O        O      0.032000000000     0.301300000000     0.193900000000     0          
O        O      0.085466666667     0.042733333333     0.184550000000     0          
O        O      0.103733333333     0.321166666667     0.168425000000     0          
O        O      0.090966666667     0.001666666667     0.000000000000     0          
O        O      0.078633333333     0.254700000000     0.125000000000     0          
O        O      0.154066666667     0.308133333333     0.125000000000     0          
T        Si     0.078066666667     0.000066666667     0.199200000000     0          
T        Si     0.110000000000     0.301200000000     0.125000000000     0          
O        O      0.269300000000     0.301333333333     0.056100000000     0          
O        O      0.290600000000     0.247866666667     0.065450000000     0          
O        O      0.217433333333     0.229600000000     0.081575000000     0          
O        O      0.244033333333     0.242366666667     0.000000000000     0          
O        O      0.176066666667     0.254700000000     0.125000000000     0          
O        O      0.154066666667     0.179266666667     0.125000000000     0          
T        Si     0.255333333333     0.255266666667     0.050800000000     0          
T        Si     0.191200000000     0.223333333333     0.125000000000     0          
O        O      0.032033333333     0.064033333333     0.193900000000     0          
O        O      0.290600000000     0.042733333333     0.184550000000     0          
O        O      0.012166666667     0.115900000000     0.168425000000     0          
T        Si     0.333266666667     0.078000000000     0.199200000000     0          
O        O      0.032000000000     0.301300000000     0.056100000000     0          
O        O      0.085466666667     0.042733333333     0.065450000000     0          
O        O      0.103733333333     0.321166666667     0.081575000000     0          
T        Si     0.078066666667     0.000066666667     0.050800000000     0          
O        O      0.269300000000     0.301333333333     0.193900000000     0          
O        O      0.290600000000     0.247866666667     0.184550000000     0          
O        O      0.217433333333     0.229600000000     0.168425000000     0          
T        Si     0.255333333333     0.255266666667     0.199200000000     0          
O        O      0.217433333333     0.321166666667     0.168425000000     0          
O        O      0.244033333333     0.001666666667     0.000000000000     0          
T        Si     0.255333333333     0.000066666667     0.199200000000     0          
T        Si     0.191200000000     0.301200000000     0.125000000000     0          
O        O      0.103733333333     0.115900000000     0.081575000000     0          
O        O      0.090966666667     0.089300000000     0.000000000000     0          
T        Si     0.078066666667     0.078000000000     0.050800000000     0          
T        Si     0.110000000000     0.142133333333     0.125000000000     0          
O        O      0.012166666667     0.229600000000     0.168425000000     0          
O        O      0.331666666667     0.242366666667     0.000000000000     0          
T        Si     0.333266666667     0.255266666667     0.199200000000     0          
T        Si     0.032133333333     0.223333333333     0.125000000000     0          
O        O      0.217433333333     0.321166666667     0.081575000000     0          
T        Si     0.255333333333     0.000066666667     0.050800000000     0          
O        O      0.103733333333     0.115900000000     0.168425000000     0          
T        Si     0.078066666667     0.078000000000     0.199200000000     0          
O        O      0.012166666667     0.229600000000     0.081575000000     0          
T        Si     0.333266666667     0.255266666667     0.050800000000     0          
O        O      0.032033333333     0.064033333333     0.306100000000     0          
O        O      0.290600000000     0.042733333333     0.315450000000     0          
O        O      0.012166666667     0.115900000000     0.331575000000     0          
O        O      0.331666666667     0.089300000000     0.250000000000     0          
O        O      0.078633333333     0.157266666667     0.375000000000     0          
O        O      0.025200000000     0.179266666667     0.375000000000     0          
T        Si     0.333266666667     0.078000000000     0.300800000000     0          
T        Si     0.032133333333     0.142133333333     0.375000000000     0          
O        O      0.032000000000     0.301300000000     0.443900000000     0          
O        O      0.085466666667     0.042733333333     0.434550000000     0          
O        O      0.103733333333     0.321166666667     0.418425000000     0          
O        O      0.090966666667     0.001666666667     0.250000000000     0          
O        O      0.078633333333     0.254700000000     0.375000000000     0          
O        O      0.154066666667     0.308133333333     0.375000000000     0          
T        Si     0.078066666667     0.000066666667     0.449200000000     0          
T        Si     0.110000000000     0.301200000000     0.375000000000     0          
O        O      0.269300000000     0.301333333333     0.306100000000     0          
O        O      0.290600000000     0.247866666667     0.315450000000     0          
O        O      0.217433333333     0.229600000000     0.331575000000     0          
O        O      0.244033333333     0.242366666667     0.250000000000     0          
O        O      0.176066666667     0.254700000000     0.375000000000     0          
O        O      0.154066666667     0.179266666667     0.375000000000     0          
T        Si     0.255333333333     0.255266666667     0.300800000000     0          
T        Si     0.191200000000     0.223333333333     0.375000000000     0          
O        O      0.032033333333     0.064033333333     0.443900000000     0          
O        O      0.290600000000     0.042733333333     0.434550000000     0          
O        O      0.012166666667     0.115900000000     0.418425000000     0          
T        Si     0.333266666667     0.078000000000     0.449200000000     0          
O        O      0.032000000000     0.301300000000     0.306100000000     0          
O        O      0.085466666667     0.042733333333     0.315450000000     0          
O        O      0.103733333333     0.321166666667     0.331575000000     0          
T        Si     0.078066666667     0.000066666667     0.300800000000     0          
O        O      0.269300000000     0.301333333333     0.443900000000     0          
O        O      0.290600000000     0.247866666667     0.434550000000     0          
O        O      0.217433333333     0.229600000000     0.418425000000     0          
T        Si     0.255333333333     0.255266666667     0.449200000000     0          
O        O      0.217433333333     0.321166666667     0.418425000000     0          
O        O      0.244033333333     0.001666666667     0.250000000000     0          
T        Si     0.255333333333     0.000066666667     0.449200000000     0          
T        Si     0.191200000000     0.301200000000     0.375000000000     0          
O        O      0.103733333333     0.115900000000     0.331575000000     0          
O        O      0.090966666667     0.089300000000     0.250000000000     0          
T        Si     0.078066666667     0.078000000000     0.300800000000     0          
T        Si     0.110000000000     0.142133333333     0.375000000000     0          
O        O      0.012166666667     0.229600000000     0.418425000000     0          
O        O      0.331666666667     0.242366666667     0.250000000000     0          
T        Si     0.333266666667     0.255266666667     0.449200000000     0          
T        Si     0.032133333333     0.223333333333     0.375000000000     0          
O        O      0.217433333333     0.321166666667     0.331575000000     0          
T        Si     0.255333333333     0.000066666667     0.300800000000     0          
O        O      0.103733333333     0.115900000000     0.418425000000     0          
T        Si     0.078066666667     0.078000000000     0.449200000000     0          
O        O      0.012166666667     0.229600000000     0.331575000000     0          
T        Si     0.333266666667     0.255266666667     0.300800000000     0          
O        O      0.032033333333     0.064033333333     0.556100000000     0          
O        O      0.290600000000     0.042733333333     0.565450000000     0          
O        O      0.012166666667     0.115900000000     0.581575000000     0          
O        O      0.331666666667     0.089300000000     0.500000000000     0          
O        O      0.078633333333     0.157266666667     0.625000000000     0          
O        O      0.025200000000     0.179266666667     0.625000000000     0          
T        Si     0.333266666667     0.078000000000     0.550800000000     0          
T        Si     0.032133333333     0.142133333333     0.625000000000     0          
O        O      0.032000000000     0.301300000000     0.693900000000     0          
O        O      0.085466666667     0.042733333333     0.684550000000     0          
O        O      0.103733333333     0.321166666667     0.668425000000     0          
O        O      0.090966666667     0.001666666667     0.500000000000     0          
O        O      0.078633333333     0.254700000000     0.625000000000     0          
O        O      0.154066666667     0.308133333333     0.625000000000     0          
T        Si     0.078066666667     0.000066666667     0.699200000000     0          
T        Si     0.110000000000     0.301200000000     0.625000000000     0          
O        O      0.269300000000     0.301333333333     0.556100000000     0          
O        O      0.290600000000     0.247866666667     0.565450000000     0          
O        O      0.217433333333     0.229600000000     0.581575000000     0          
O        O      0.244033333333     0.242366666667     0.500000000000     0          
O        O      0.176066666667     0.254700000000     0.625000000000     0          
O        O      0.154066666667     0.179266666667     0.625000000000     0          
T        Si     0.255333333333     0.255266666667     0.550800000000     0          
T        Si     0.191200000000     0.223333333333     0.625000000000     0          
O        O      0.032033333333     0.064033333333     0.693900000000     0          
O        O      0.290600000000     0.042733333333     0.684550000000     0          
O        O      0.012166666667     0.115900000000     0.668425000000     0          
T        Si     0.333266666667     0.078000000000     0.699200000000     0          
O        O      0.032000000000     0.301300000000     0.556100000000     0          
O        O      0.085466666667     0.042733333333     0.565450000000     0          
O        O      0.103733333333     0.321166666667     0.581575000000     0          
T        Si     0.078066666667     0.000066666667     0.550800000000     0          
O        O      0.269300000000     0.301333333333     0.693900000000     0          
O        O      0.290600000000     0.247866666667     0.684550000000     0          
O        O      0.217433333333     0.229600000000     0.668425000000     0          
T        Si     0.255333333333     0.255266666667     0.699200000000     0          
O        O      0.217433333333     0.321166666667     0.668425000000     0          
O        O      0.244033333333     0.001666666667     0.500000000000     0          
T        Si     0.255333333333     0.000066666667     0.699200000000     0          
T        Si     0.191200000000     0.301200000000     0.625000000000     0          
O        O      0.103733333333     0.115900000000     0.581575000000     0          
O        O      0.090966666667     0.089300000000     0.500000000000     0          
T        Si     0.078066666667     0.078000000000     0.550800000000     0          
T        Si     0.110000000000     0.142133333333     0.625000000000     0          
O        O      0.012166666667     0.229600000000     0.668425000000     0          
O        O      0.331666666667     0.242366666667     0.500000000000     0          
T        Si     0.333266666667     0.255266666667     0.699200000000     0          
T        Si     0.032133333333     0.223333333333     0.625000000000     0          
O        O      0.217433333333     0.321166666667     0.581575000000     0          
T        Si     0.255333333333     0.000066666667     0.550800000000     0          
O        O      0.103733333333     0.115900000000     0.668425000000     0          
T        Si     0.078066666667     0.078000000000     0.699200000000     0          
O        O      0.012166666667     0.229600000000     0.581575000000     0          
T        Si     0.333266666667     0.255266666667     0.550800000000     0          
O        O      0.032033333333     0.064033333333     0.806100000000     0          
O        O      0.290600000000     0.042733333333     0.815450000000     0          
O        O      0.012166666667     0.115900000000     0.831575000000     0          
O        O      0.331666666667     0.089300000000     0.750000000000     0          
O        O      0.078633333333     0.157266666667     0.875000000000     0          
O        O      0.025200000000     0.179266666667     0.875000000000     0          
T        Si     0.333266666667     0.078000000000     0.800800000000     0          
T        Si     0.032133333333     0.142133333333     0.875000000000     0          
O        O      0.032000000000     0.301300000000     0.943900000000     0          
O        O      0.085466666667     0.042733333333     0.934550000000     0          
O        O      0.103733333333     0.321166666667     0.918425000000     0          
O        O      0.090966666667     0.001666666667     0.750000000000     0          
O        O      0.078633333333     0.254700000000     0.875000000000     0          
O        O      0.154066666667     0.308133333333     0.875000000000     0          
T        Si     0.078066666667     0.000066666667     0.949200000000     0          
T        Si     0.110000000000     0.301200000000     0.875000000000     0          
O        O      0.269300000000     0.301333333333     0.806100000000     0          
O        O      0.290600000000     0.247866666667     0.815450000000     0          
O        O      0.217433333333     0.229600000000     0.831575000000     0          
O        O      0.244033333333     0.242366666667     0.750000000000     0          
O        O      0.176066666667     0.254700000000     0.875000000000     0          
O        O      0.154066666667     0.179266666667     0.875000000000     0          
T        Si     0.255333333333     0.255266666667     0.800800000000     0          
T        Si     0.191200000000     0.223333333333     0.875000000000     0          
O        O      0.032033333333     0.064033333333     0.943900000000     0          
O        O      0.290600000000     0.042733333333     0.934550000000     0          
O        O      0.012166666667     0.115900000000     0.918425000000     0          
T        Si     0.333266666667     0.078000000000     0.949200000000     0          
O        O      0.032000000000     0.301300000000     0.806100000000     0          
O        O      0.085466666667     0.042733333333     0.815450000000     0          
O        O      0.103733333333     0.321166666667     0.831575000000     0          
T        Si     0.078066666667     0.000066666667     0.800800000000     0          
O        O      0.269300000000     0.301333333333     0.943900000000     0          
O        O      0.290600000000     0.247866666667     0.934550000000     0          
O        O      0.217433333333     0.229600000000     0.918425000000     0          
T        Si     0.255333333333     0.255266666667     0.949200000000     0          
O        O      0.217433333333     0.321166666667     0.918425000000     0          
O        O      0.244033333333     0.001666666667     0.750000000000     0          
T        Si     0.255333333333     0.000066666667     0.949200000000     0          
T        Si     0.191200000000     0.301200000000     0.875000000000     0          
O        O      0.103733333333     0.115900000000     0.831575000000     0          
O        O      0.090966666667     0.089300000000     0.750000000000     0          
T        Si     0.078066666667     0.078000000000     0.800800000000     0          
T        Si     0.110000000000     0.142133333333     0.875000000000     0          
O        O      0.012166666667     0.229600000000     0.918425000000     0          
O        O      0.331666666667     0.242366666667     0.750000000000     0          
T        Si     0.333266666667     0.255266666667     0.949200000000     0          
T        Si     0.032133333333     0.223333333333     0.875000000000     0          
O        O      0.217433333333     0.321166666667     0.831575000000     0          
T        Si     0.255333333333     0.000066666667     0.800800000000     0          
O        O      0.103733333333     0.115900000000     0.918425000000     0          
T        Si     0.078066666667     0.078000000000     0.949200000000     0          
O        O      0.012166666667     0.229600000000     0.831575000000     0          
T        Si     0.333266666667     0.255266666667     0.800800000000     0          
O        O      0.032033333333     0.397366666667     0.056100000000     0          
O        O      0.290600000000     0.376066666667     0.065450000000     0          
O        O      0.012166666667     0.449233333333     0.081575000000     0          
O        O      0.331666666667     0.422633333333     0.000000000000     0          
O        O      0.078633333333     0.490600000000     0.125000000000     0          
O        O      0.025200000000     0.512600000000     0.125000000000     0          
T        Si     0.333266666667     0.411333333333     0.050800000000     0          
T        Si     0.032133333333     0.475466666667     0.125000000000     0          
O        O      0.032000000000     0.634633333333     0.193900000000     0          
O        O      0.085466666667     0.376066666667     0.184550000000     0          
O        O      0.103733333333     0.654500000000     0.168425000000     0          
O        O      0.090966666667     0.335000000000     0.000000000000     0          
O        O      0.078633333333     0.588033333333     0.125000000000     0          
O        O      0.154066666667     0.641466666667     0.125000000000     0          
T        Si     0.078066666667     0.333400000000     0.199200000000     0          
T        Si     0.110000000000     0.634533333333     0.125000000000     0          
O        O      0.269300000000     0.634666666667     0.056100000000     0          
O        O      0.290600000000     0.581200000000     0.065450000000     0          
O        O      0.217433333333     0.562933333333     0.081575000000     0          
O        O      0.244033333333     0.575700000000     0.000000000000     0          
O        O      0.176066666667     0.588033333333     0.125000000000     0          
O        O      0.154066666667     0.512600000000     0.125000000000     0          
T        Si     0.255333333333     0.588600000000     0.050800000000     0          
T        Si     0.191200000000     0.556666666667     0.125000000000     0          
O        O      0.032033333333     0.397366666667     0.193900000000     0          
O        O      0.290600000000     0.376066666667     0.184550000000     0          
O        O      0.012166666667     0.449233333333     0.168425000000     0          
T        Si     0.333266666667     0.411333333333     0.199200000000     0          
O        O      0.032000000000     0.634633333333     0.056100000000     0          
O        O      0.085466666667     0.376066666667     0.065450000000     0          
O        O      0.103733333333     0.654500000000     0.081575000000     0          
T        Si     0.078066666667     0.333400000000     0.050800000000     0          
O        O      0.269300000000     0.634666666667     0.193900000000     0          
O        O      0.290600000000     0.581200000000     0.184550000000     0          
O        O      0.217433333333     0.562933333333     0.168425000000     0          
T        Si     0.255333333333     0.588600000000     0.199200000000     0          
O        O      0.217433333333     0.654500000000     0.168425000000     0          
O        O      0.244033333333     0.335000000000     0.000000000000     0          
T        Si     0.255333333333     0.333400000000     0.199200000000     0          
T        Si     0.191200000000     0.634533333333     0.125000000000     0          
O        O      0.103733333333     0.449233333333     0.081575000000     0          
O        O      0.090966666667     0.422633333333     0.000000000000     0          
T        Si     0.078066666667     0.411333333333     0.050800000000     0          
T        Si     0.110000000000     0.475466666667     0.125000000000     0          
O        O      0.012166666667     0.562933333333     0.168425000000     0          
O        O      0.331666666667     0.575700000000     0.000000000000     0          
T        Si     0.333266666667     0.588600000000     0.199200000000     0          
T        Si     0.032133333333     0.556666666667     0.125000000000     0          
O        O      0.217433333333     0.654500000000     0.081575000000     0          
T        Si     0.255333333333     0.333400000000     0.050800000000     0          
O        O      0.103733333333     0.449233333333     0.168425000000     0          
T        Si     0.078066666667     0.411333333333     0.199200000000     0          
O        O      0.012166666667     0.562933333333     0.081575000000     0          
T        Si     0.333266666667     0.588600000000     0.050800000000     0          
O        O      0.032033333333     0.397366666667     0.306100000000     0          
O        O      0.290600000000     0.376066666667     0.315450000000     0          
O        O      0.012166666667     0.449233333333     0.331575000000     0          
O        O      0.331666666667     0.422633333333     0.250000000000     0          
O        O      0.078633333333     0.490600000000     0.375000000000     0          
O        O      0.025200000000     0.512600000000     0.375000000000     0          
T        Si     0.333266666667     0.411333333333     0.300800000000     0          
T        Si     0.032133333333     0.475466666667     0.375000000000     0          
O        O      0.032000000000     0.634633333333     0.443900000000     0          
O        O      0.085466666667     0.376066666667     0.434550000000     0          
O        O      0.103733333333     0.654500000000     0.418425000000     0          
O        O      0.090966666667     0.335000000000     0.250000000000     0          
O        O      0.078633333333     0.588033333333     0.375000000000     0          
O        O      0.154066666667     0.641466666667     0.375000000000     0          
T        Si     0.078066666667     0.333400000000     0.449200000000     0          
T        Si     0.110000000000     0.634533333333     0.375000000000     0          
O        O      0.269300000000     0.634666666667     0.306100000000     0          
O        O      0.290600000000     0.581200000000     0.315450000000     0          
O        O      0.217433333333     0.562933333333     0.331575000000     0          
O        O      0.244033333333     0.575700000000     0.250000000000     0          
O        O      0.176066666667     0.588033333333     0.375000000000     0          
O        O      0.154066666667     0.512600000000     0.375000000000     0          
T        Si     0.255333333333     0.588600000000     0.300800000000     0          
T        Si     0.191200000000     0.556666666667     0.375000000000     0          
O        O      0.032033333333     0.397366666667     0.443900000000     0          
O        O      0.290600000000     0.376066666667     0.434550000000     0          
O        O      0.012166666667     0.449233333333     0.418425000000     0          
T        Si     0.333266666667     0.411333333333     0.449200000000     0          
O        O      0.032000000000     0.634633333333     0.306100000000     0          
O        O      0.085466666667     0.376066666667     0.315450000000     0          
O        O      0.103733333333     0.654500000000     0.331575000000     0          
T        Si     0.078066666667     0.333400000000     0.300800000000     0          
O        O      0.269300000000     0.634666666667     0.443900000000     0          
O        O      0.290600000000     0.581200000000     0.434550000000     0          
O        O      0.217433333333     0.562933333333     0.418425000000     0          
T        Si     0.255333333333     0.588600000000     0.449200000000     0          
O        O      0.217433333333     0.654500000000     0.418425000000     0          
O        O      0.244033333333     0.335000000000     0.250000000000     0          
T        Si     0.255333333333     0.333400000000     0.449200000000     0          
T        Si     0.191200000000     0.634533333333     0.375000000000     0          
O        O      0.103733333333     0.449233333333     0.331575000000     0          
O        O      0.090966666667     0.422633333333     0.250000000000     0          
T        Si     0.078066666667     0.411333333333     0.300800000000     0          
T        Si     0.110000000000     0.475466666667     0.375000000000     0          
O        O      0.012166666667     0.562933333333     0.418425000000     0          
O        O      0.331666666667     0.575700000000     0.250000000000     0          
T        Si     0.333266666667     0.588600000000     0.449200000000     0          
T        Si     0.032133333333     0.556666666667     0.375000000000     0          
O        O      0.217433333333     0.654500000000     0.331575000000     0          
T        Si     0.255333333333     0.333400000000     0.300800000000     0          
O        O      0.103733333333     0.449233333333     0.418425000000     0          
T        Si     0.078066666667     0.411333333333     0.449200000000     0          
O        O      0.012166666667     0.562933333333     0.331575000000     0          
T        Si     0.333266666667     0.588600000000     0.300800000000     0          
O        O      0.032033333333     0.397366666667     0.556100000000     0          
O        O      0.290600000000     0.376066666667     0.565450000000     0          
O        O      0.012166666667     0.449233333333     0.581575000000     0          
O        O      0.331666666667     0.422633333333     0.500000000000     0          
O        O      0.078633333333     0.490600000000     0.625000000000     0          
O        O      0.025200000000     0.512600000000     0.625000000000     0          
T        Si     0.333266666667     0.411333333333     0.550800000000     0          
T        Si     0.032133333333     0.475466666667     0.625000000000     0          
O        O      0.032000000000     0.634633333333     0.693900000000     0          
O        O      0.085466666667     0.376066666667     0.684550000000     0          
O        O      0.103733333333     0.654500000000     0.668425000000     0          
O        O      0.090966666667     0.335000000000     0.500000000000     0          
O        O      0.078633333333     0.588033333333     0.625000000000     0          
O        O      0.154066666667     0.641466666667     0.625000000000     0          
T        Si     0.078066666667     0.333400000000     0.699200000000     0          
T        Si     0.110000000000     0.634533333333     0.625000000000     0          
O        O      0.269300000000     0.634666666667     0.556100000000     0          
O        O      0.290600000000     0.581200000000     0.565450000000     0          
O        O      0.217433333333     0.562933333333     0.581575000000     0          
O        O      0.244033333333     0.575700000000     0.500000000000     0          
O        O      0.176066666667     0.588033333333     0.625000000000     0          
O        O      0.154066666667     0.512600000000     0.625000000000     0          
T        Si     0.255333333333     0.588600000000     0.550800000000     0          
T        Si     0.191200000000     0.556666666667     0.625000000000     0          
O        O      0.032033333333     0.397366666667     0.693900000000     0          
O        O      0.290600000000     0.376066666667     0.684550000000     0          
O        O      0.012166666667     0.449233333333     0.668425000000     0          
T        Si     0.333266666667     0.411333333333     0.699200000000     0          
O        O      0.032000000000     0.634633333333     0.556100000000     0          
O        O      0.085466666667     0.376066666667     0.565450000000     0          
O        O      0.103733333333     0.654500000000     0.581575000000     0          
T        Si     0.078066666667     0.333400000000     0.550800000000     0          
O        O      0.269300000000     0.634666666667     0.693900000000     0          
O        O      0.290600000000     0.581200000000     0.684550000000     0          
O        O      0.217433333333     0.562933333333     0.668425000000     0          
T        Si     0.255333333333     0.588600000000     0.699200000000     0          
O        O      0.217433333333     0.654500000000     0.668425000000     0          
O        O      0.244033333333     0.335000000000     0.500000000000     0          
T        Si     0.255333333333     0.333400000000     0.699200000000     0          
T        Si     0.191200000000     0.634533333333     0.625000000000     0          
O        O      0.103733333333     0.449233333333     0.581575000000     0          
O        O      0.090966666667     0.422633333333     0.500000000000     0          
T        Si     0.078066666667     0.411333333333     0.550800000000     0          
T        Si     0.110000000000     0.475466666667     0.625000000000     0          
O        O      0.012166666667     0.562933333333     0.668425000000     0          
O        O      0.331666666667     0.575700000000     0.500000000000     0          
T        Si     0.333266666667     0.588600000000     0.699200000000     0          
T        Si     0.032133333333     0.556666666667     0.625000000000     0          
O        O      0.217433333333     0.654500000000     0.581575000000     0          
T        Si     0.255333333333     0.333400000000     0.550800000000     0          
O        O      0.103733333333     0.449233333333     0.668425000000     0          
T        Si     0.078066666667     0.411333333333     0.699200000000     0          
O        O      0.012166666667     0.562933333333     0.581575000000     0          
T        Si     0.333266666667     0.588600000000     0.550800000000     0          
O        O      0.032033333333     0.397366666667     0.806100000000     0          
O        O      0.290600000000     0.376066666667     0.815450000000     0          
O        O      0.012166666667     0.449233333333     0.831575000000     0          
O        O      0.331666666667     0.422633333333     0.750000000000     0          
O        O      0.078633333333     0.490600000000     0.875000000000     0          
O        O      0.025200000000     0.512600000000     0.875000000000     0          
T        Si     0.333266666667     0.411333333333     0.800800000000     0          
T        Si     0.032133333333     0.475466666667     0.875000000000     0          
O        O      0.032000000000     0.634633333333     0.943900000000     0          
O        O      0.085466666667     0.376066666667     0.934550000000     0          
O        O      0.103733333333     0.654500000000     0.918425000000     0          
O        O      0.090966666667     0.335000000000     0.750000000000     0          
O        O      0.078633333333     0.588033333333     0.875000000000     0          
O        O      0.154066666667     0.641466666667     0.875000000000     0          
T        Si     0.078066666667     0.333400000000     0.949200000000     0          
T        Si     0.110000000000     0.634533333333     0.875000000000     0          
O        O      0.269300000000     0.634666666667     0.806100000000     0          
O        O      0.290600000000     0.581200000000     0.815450000000     0          
O        O      0.217433333333     0.562933333333     0.831575000000     0          
O        O      0.244033333333     0.575700000000     0.750000000000     0          
O        O      0.176066666667     0.588033333333     0.875000000000     0          
O        O      0.154066666667     0.512600000000     0.875000000000     0          
T        Si     0.255333333333     0.588600000000     0.800800000000     0          
T        Si     0.191200000000     0.556666666667     0.875000000000     0          
O        O      0.032033333333     0.397366666667     0.943900000000     0          
O        O      0.290600000000     0.376066666667     0.934550000000     0          
O        O      0.012166666667     0.449233333333     0.918425000000     0          
T        Si     0.333266666667     0.411333333333     0.949200000000     0          
O        O      0.032000000000     0.634633333333     0.806100000000     0          
O        O      0.085466666667     0.376066666667     0.815450000000     0          
O        O      0.103733333333     0.654500000000     0.831575000000     0          
T        Si     0.078066666667     0.333400000000     0.800800000000     0          
O        O      0.269300000000     0.634666666667     0.943900000000     0          
O        O      0.290600000000     0.581200000000     0.934550000000     0          
O        O      0.217433333333     0.562933333333     0.918425000000     0          
T        Si     0.255333333333     0.588600000000     0.949200000000     0          
O        O      0.217433333333     0.654500000000     0.918425000000     0          
O        O      0.244033333333     0.335000000000     0.750000000000     0          
T        Si     0.255333333333     0.333400000000     0.949200000000     0          
T        Si     0.191200000000     0.634533333333     0.875000000000     0          
O        O      0.103733333333     0.449233333333     0.831575000000     0          
O        O      0.090966666667     0.422633333333     0.750000000000     0          
T        Si     0.078066666667     0.411333333333     0.800800000000     0          
T        Si     0.110000000000     0.475466666667     0.875000000000     0          
O        O      0.012166666667     0.562933333333     0.918425000000     0          
O        O      0.331666666667     0.575700000000     0.750000000000     0          
T        Si     0.333266666667     0.588600000000     0.949200000000     0          
T        Si     0.032133333333     0.556666666667     0.875000000000     0          
O        O      0.217433333333     0.654500000000     0.831575000000     0          
T        Si     0.255333333333     0.333400000000     0.800800000000     0          
O        O      0.103733333333     0.449233333333     0.918425000000     0          
T        Si     0.078066666667     0.411333333333     0.949200000000     0          
O        O      0.012166666667     0.562933333333     0.831575000000     0          
T        Si     0.333266666667     0.588600000000     0.800800000000     0          
O        O      0.032033333333     0.730700000000     0.056100000000     0          
O        O      0.290600000000     0.709400000000     0.065450000000     0          
O        O      0.012166666667     0.782566666667     0.081575000000     0          
O        O      0.331666666667     0.755966666667     0.000000000000     0          
O        O      0.078633333333     0.823933333333     0.125000000000     0          
O        O      0.025200000000     0.845933333333     0.125000000000     0          
T        Si     0.333266666667     0.744666666667     0.050800000000     0          
T        Si     0.032133333333     0.808800000000     0.125000000000     0          
O        O      0.032000000000     0.967966666667     0.193900000000     0          
O        O      0.085466666667     0.709400000000     0.184550000000     0          
O        O      0.103733333333     0.987833333333     0.168425000000     0          
O        O      0.090966666667     0.668333333333     0.000000000000     0          
O        O      0.078633333333     0.921366666667     0.125000000000     0          
O        O      0.154066666667     0.974800000000     0.125000000000     0          
T        Si     0.078066666667     0.666733333333     0.199200000000     0          
T        Si     0.110000000000     0.967866666667     0.125000000000     0          
O        O      0.269300000000     0.968000000000     0.056100000000     0          
O        O      0.290600000000     0.914533333333     0.065450000000     0          
O        O      0.217433333333     0.896266666667     0.081575000000     0          
O        O      0.244033333333     0.909033333333     0.000000000000     0          
O        O      0.176066666667     0.921366666667     0.125000000000     0          
O        O      0.154066666667     0.845933333333     0.125000000000     0          
T        Si     0.255333333333     0.921933333333     0.050800000000     0          
T        Si     0.191200000000     0.890000000000     0.125000000000     0          
O        O      0.032033333333     0.730700000000     0.193900000000     0          
O        O      0.290600000000     0.709400000000     0.184550000000     0          
O        O      0.012166666667     0.782566666667     0.168425000000     0          
T        Si     0.333266666667     0.744666666667     0.199200000000     0          
O        O      0.032000000000     0.967966666667     0.056100000000     0          
O        O      0.085466666667     0.709400000000     0.065450000000     0          
O        O      0.103733333333     0.987833333333     0.081575000000     0          
T        Si     0.078066666667     0.666733333333     0.050800000000     0          
O        O      0.269300000000     0.968000000000     0.193900000000     0          
O        O      0.290600000000     0.914533333333     0.184550000000     0          
O        O      0.217433333333     0.896266666667     0.168425000000     0          
T        Si     0.255333333333     0.921933333333     0.199200000000     0          
O        O      0.217433333333     0.987833333333     0.168425000000     0          
O        O      0.244033333333     0.668333333333     0.000000000000     0          
T        Si     0.255333333333     0.666733333333     0.199200000000     0          
T        Si     0.191200000000     0.967866666667     0.125000000000     0          
O        O      0.103733333333     0.782566666667     0.081575000000     0          
O        O      0.090966666667     0.755966666667     0.000000000000     0          
T        Si     0.078066666667     0.744666666667     0.050800000000     0          
T        Si     0.110000000000     0.808800000000     0.125000000000     0          
O        O      0.012166666667     0.896266666667     0.168425000000     0          
O        O      0.331666666667     0.909033333333     0.000000000000     0          
T        Si     0.333266666667     0.921933333333     0.199200000000     0          
T        Si     0.032133333333     0.890000000000     0.125000000000     0          
O        O      0.217433333333     0.987833333333     0.081575000000     0          
T        Si     0.255333333333     0.666733333333     0.050800000000     0          
O        O      0.103733333333     0.782566666667     0.168425000000     0          
T        Si     0.078066666667     0.744666666667     0.199200000000     0          
O        O      0.012166666667     0.896266666667     0.081575000000     0          
T        Si     0.333266666667     0.921933333333     0.050800000000     0          
O        O      0.032033333333     0.730700000000     0.306100000000     0          
O        O      0.290600000000     0.709400000000     0.315450000000     0          
O        O      0.012166666667     0.782566666667     0.331575000000     0          
O        O      0.331666666667     0.755966666667     0.250000000000     0          
O        O      0.078633333333     0.823933333333     0.375000000000     0          
O        O      0.025200000000     0.845933333333     0.375000000000     0          
T        Si     0.333266666667     0.744666666667     0.300800000000     0          
T        Si     0.032133333333     0.808800000000     0.375000000000     0          
O        O      0.032000000000     0.967966666667     0.443900000000     0          
O        O      0.085466666667     0.709400000000     0.434550000000     0          
O        O      0.103733333333     0.987833333333     0.418425000000     0          
O        O      0.090966666667     0.668333333333     0.250000000000     0          
O        O      0.078633333333     0.921366666667     0.375000000000     0          
O        O      0.154066666667     0.974800000000     0.375000000000     0          
T        Si     0.078066666667     0.666733333333     0.449200000000     0          
T        Si     0.110000000000     0.967866666667     0.375000000000     0          
O        O      0.269300000000     0.968000000000     0.306100000000     0          
O        O      0.290600000000     0.914533333333     0.315450000000     0          
O        O      0.217433333333     0.896266666667     0.331575000000     0          
O        O      0.244033333333     0.909033333333     0.250000000000     0          
O        O      0.176066666667     0.921366666667     0.375000000000     0          
O        O      0.154066666667     0.845933333333     0.375000000000     0          
T        Si     0.255333333333     0.921933333333     0.300800000000     0          
T        Si     0.191200000000     0.890000000000     0.375000000000     0          
O        O      0.032033333333     0.730700000000     0.443900000000     0          
O        O      0.290600000000     0.709400000000     0.434550000000     0          
O        O      0.012166666667     0.782566666667     0.418425000000     0          
T        Si     0.333266666667     0.744666666667     0.449200000000     0          
O        O      0.032000000000     0.967966666667     0.306100000000     0          
O        O      0.085466666667     0.709400000000     0.315450000000     0          
O        O      0.103733333333     0.987833333333     0.331575000000     0          
T        Si     0.078066666667     0.666733333333     0.300800000000     0          
O        O      0.269300000000     0.968000000000     0.443900000000     0          
O        O      0.290600000000     0.914533333333     0.434550000000     0          
O        O      0.217433333333     0.896266666667     0.418425000000     0          
T        Si     0.255333333333     0.921933333333     0.449200000000     0          
O        O      0.217433333333     0.987833333333     0.418425000000     0          
O        O      0.244033333333     0.668333333333     0.250000000000     0          
T        Si     0.255333333333     0.666733333333     0.449200000000     0          
T        Si     0.191200000000     0.967866666667     0.375000000000     0          
O        O      0.103733333333     0.782566666667     0.331575000000     0          
O        O      0.090966666667     0.755966666667     0.250000000000     0          
T        Si     0.078066666667     0.744666666667     0.300800000000     0          
T        Si     0.110000000000     0.808800000000     0.375000000000     0          
O        O      0.012166666667     0.896266666667     0.418425000000     0          
O        O      0.331666666667     0.909033333333     0.250000000000     0          
T        Si     0.333266666667     0.921933333333     0.449200000000     0          
T        Si     0.032133333333     0.890000000000     0.375000000000     0          
O        O      0.217433333333     0.987833333333     0.331575000000     0          
T        Si     0.255333333333     0.666733333333     0.300800000000     0          
O        O      0.103733333333     0.782566666667     0.418425000000     0          
T        Si     0.078066666667     0.744666666667     0.449200000000     0          
O        O      0.012166666667     0.896266666667     0.331575000000     0          
T        Si     0.333266666667     0.921933333333     0.300800000000     0          
O        O      0.032033333333     0.730700000000     0.556100000000     0          
O        O      0.290600000000     0.709400000000     0.565450000000     0          
O        O      0.012166666667     0.782566666667     0.581575000000     0          
O        O      0.331666666667     0.755966666667     0.500000000000     0          
O        O      0.078633333333     0.823933333333     0.625000000000     0          
O        O      0.025200000000     0.845933333333     0.625000000000     0          
T        Si     0.333266666667     0.744666666667     0.550800000000     0          
T        Si     0.032133333333     0.808800000000     0.625000000000     0          
O        O      0.032000000000     0.967966666667     0.693900000000     0          
O        O      0.085466666667     0.709400000000     0.684550000000     0          
O        O      0.103733333333     0.987833333333     0.668425000000     0          
O        O      0.090966666667     0.668333333333     0.500000000000     0          
O        O      0.078633333333     0.921366666667     0.625000000000     0          
O        O      0.154066666667     0.974800000000     0.625000000000     0          
T        Si     0.078066666667     0.666733333333     0.699200000000     0          
T        Si     0.110000000000     0.967866666667     0.625000000000     0          
O        O      0.269300000000     0.968000000000     0.556100000000     0          
O        O      0.290600000000     0.914533333333     0.565450000000     0          
O        O      0.217433333333     0.896266666667     0.581575000000     0          
O        O      0.244033333333     0.909033333333     0.500000000000     0          
O        O      0.176066666667     0.921366666667     0.625000000000     0          
O        O      0.154066666667     0.845933333333     0.625000000000     0          
T        Si     0.255333333333     0.921933333333     0.550800000000     0          
T        Si     0.191200000000     0.890000000000     0.625000000000     0          
O        O      0.032033333333     0.730700000000     0.693900000000     0          
O        O      0.290600000000     0.709400000000     0.684550000000     0          
O        O      0.012166666667     0.782566666667     0.668425000000     0          
T        Si     0.333266666667     0.744666666667     0.699200000000     0          
O        O      0.032000000000     0.967966666667     0.556100000000     0          
O        O      0.085466666667     0.709400000000     0.565450000000     0          
O        O      0.103733333333     0.987833333333     0.581575000000     0          
T        Si     0.078066666667     0.666733333333     0.550800000000     0          
O        O      0.269300000000     0.968000000000     0.693900000000     0          
O        O      0.290600000000     0.914533333333     0.684550000000     0          
O        O      0.217433333333     0.896266666667     0.668425000000     0          
T        Si     0.255333333333     0.921933333333     0.699200000000     0          
O        O      0.217433333333     0.987833333333     0.668425000000     0          
O        O      0.244033333333     0.668333333333     0.500000000000     0          
T        Si     0.255333333333     0.666733333333     0.699200000000     0          
T        Si     0.191200000000     0.967866666667     0.625000000000     0          
O        O      0.103733333333     0.782566666667     0.581575000000     0          
O        O      0.090966666667     0.755966666667     0.500000000000     0          
T        Si     0.078066666667     0.744666666667     0.550800000000     0          
T        Si     0.110000000000     0.808800000000     0.625000000000     0          
O        O      0.012166666667     0.896266666667     0.668425000000     0          
O        O      0.331666666667     0.909033333333     0.500000000000     0          
T        Si     0.333266666667     0.921933333333     0.699200000000     0          
T        Si     0.032133333333     0.890000000000     0.625000000000     0          
O        O      0.217433333333     0.987833333333     0.581575000000     0          
T        Si     0.255333333333     0.666733333333     0.550800000000     0          
O        O      0.103733333333     0.782566666667     0.668425000000     0          
T        Si     0.078066666667     0.744666666667     0.699200000000     0          
O        O      0.012166666667     0.896266666667     0.581575000000     0          
T        Si     0.333266666667     0.921933333333     0.550800000000     0          
O        O      0.032033333333     0.730700000000     0.806100000000     0          
O        O      0.290600000000     0.709400000000     0.815450000000     0          
O        O      0.012166666667     0.782566666667     0.831575000000     0          
O        O      0.331666666667     0.755966666667     0.750000000000     0          
O        O      0.078633333333     0.823933333333     0.875000000000     0          
O        O      0.025200000000     0.845933333333     0.875000000000     0          
T        Si     0.333266666667     0.744666666667     0.800800000000     0          
T        Si     0.032133333333     0.808800000000     0.875000000000     0          
O        O      0.032000000000     0.967966666667     0.943900000000     0          
O        O      0.085466666667     0.709400000000     0.934550000000     0          
O        O      0.103733333333     0.987833333333     0.918425000000     0          
O        O      0.090966666667     0.668333333333     0.750000000000     0          
O        O      0.078633333333     0.921366666667     0.875000000000     0          
O        O      0.154066666667     0.974800000000     0.875000000000     0          
T        Si     0.078066666667     0.666733333333     0.949200000000     0          
T        Si     0.110000000000     0.967866666667     0.875000000000     0          
O        O      0.269300000000     0.968000000000     0.806100000000     0          
O        O      0.290600000000     0.914533333333     0.815450000000     0          
O        O      0.217433333333     0.896266666667     0.831575000000     0          
O        O      0.244033333333     0.909033333333     0.750000000000     0          
O        O      0.176066666667     0.921366666667     0.875000000000     0          
O        O      0.154066666667     0.845933333333     0.875000000000     0          
T        Si     0.255333333333     0.921933333333     0.800800000000     0          
T        Si     0.191200000000     0.890000000000     0.875000000000     0          
O        O      0.032033333333     0.730700000000     0.943900000000     0          
O        O      0.290600000000     0.709400000000     0.934550000000     0          
O        O      0.012166666667     0.782566666667     0.918425000000     0          
T        Si     0.333266666667     0.744666666667     0.949200000000     0          
O        O      0.032000000000     0.967966666667     0.806100000000     0          
O        O      0.085466666667     0.709400000000     0.815450000000     0          
O        O      0.103733333333     0.987833333333     0.831575000000     0          
T        Si     0.078066666667     0.666733333333     0.800800000000     0          
O        O      0.269300000000     0.968000000000     0.943900000000     0          
O        O      0.290600000000     0.914533333333     0.934550000000     0          
O        O      0.217433333333     0.896266666667     0.918425000000     0          
T        Si     0.255333333333     0.921933333333     0.949200000000     0          
O        O      0.217433333333     0.987833333333     0.918425000000     0          
O        O      0.244033333333     0.668333333333     0.750000000000     0          
T        Si     0.255333333333     0.666733333333     0.949200000000     0          
T        Si     0.191200000000     0.967866666667     0.875000000000     0          
O        O      0.103733333333     0.782566666667     0.831575000000     0          
O        O      0.090966666667     0.755966666667     0.750000000000     0          
T        Si     0.078066666667     0.744666666667     0.800800000000     0          
T        Si     0.110000000000     0.808800000000     0.875000000000     0          
O        O      0.012166666667     0.896266666667     0.918425000000     0          
O        O      0.331666666667     0.909033333333     0.750000000000     0          
T        Si     0.333266666667     0.921933333333     0.949200000000     0          
T        Si     0.032133333333     0.890000000000     0.875000000000     0          
O        O      0.217433333333     0.987833333333     0.831575000000     0          
T        Si     0.255333333333     0.666733333333     0.800800000000     0          
O        O      0.103733333333     0.782566666667     0.918425000000     0          
T        Si     0.078066666667     0.744666666667     0.949200000000     0          
O        O      0.012166666667     0.896266666667     0.831575000000     0          
T        Si     0.333266666667     0.921933333333     0.800800000000     0          
O        O      0.365366666667     0.064033333333     0.056100000000     0          
O        O      0.623933333333     0.042733333333     0.065450000000     0          
O        O      0.345500000000     0.115900000000     0.081575000000     0          
O        O      0.665000000000     0.089300000000     0.000000000000     0          
O        O      0.411966666667     0.157266666667     0.125000000000     0          
O        O      0.358533333333     0.179266666667     0.125000000000     0          
T        Si     0.666600000000     0.078000000000     0.050800000000     0          
T        Si     0.365466666667     0.142133333333     0.125000000000     0          
O        O      0.365333333333     0.301300000000     0.193900000000     0          
O        O      0.418800000000     0.042733333333     0.184550000000     0          
O        O      0.437066666667     0.321166666667     0.168425000000     0          
O        O      0.424300000000     0.001666666667     0.000000000000     0          
O        O      0.411966666667     0.254700000000     0.125000000000     0          
O        O      0.487400000000     0.308133333333     0.125000000000     0          
T        Si     0.411400000000     0.000066666667     0.199200000000     0          
T        Si     0.443333333333     0.301200000000     0.125000000000     0          
O        O      0.602633333333     0.301333333333     0.056100000000     0          
O        O      0.623933333333     0.247866666667     0.065450000000     0          
O        O      0.550766666667     0.229600000000     0.081575000000     0          
O        O      0.577366666667     0.242366666667     0.000000000000     0          
O        O      0.509400000000     0.254700000000     0.125000000000     0          
O        O      0.487400000000     0.179266666667     0.125000000000     0          
T        Si     0.588666666667     0.255266666667     0.050800000000     0          
T        Si     0.524533333333     0.223333333333     0.125000000000     0          
O        O      0.365366666667     0.064033333333     0.193900000000     0          
O        O      0.623933333333     0.042733333333     0.184550000000     0          
O        O      0.345500000000     0.115900000000     0.168425000000     0          
T        Si     0.666600000000     0.078000000000     0.199200000000     0          
O        O      0.365333333333     0.301300000000     0.056100000000     0          
O        O      0.418800000000     0.042733333333     0.065450000000     0          
O        O      0.437066666667     0.321166666667     0.081575000000     0          
T        Si     0.411400000000     0.000066666667     0.050800000000     0          
O        O      0.602633333333     0.301333333333     0.193900000000     0          
O        O      0.623933333333     0.247866666667     0.184550000000     0          
O        O      0.550766666667     0.229600000000     0.168425000000     0          
T        Si     0.588666666667     0.255266666667     0.199200000000     0          
O        O      0.550766666667     0.321166666667     0.168425000000     0          
O        O      0.577366666667     0.001666666667     0.000000000000     0          
T        Si     0.588666666667     0.000066666667     0.199200000000     0          
T        Si     0.524533333333     0.301200000000     0.125000000000     0          
O        O      0.437066666667     0.115900000000     0.081575000000     0          
O        O      0.424300000000     0.089300000000     0.000000000000     0          
T        Si     0.411400000000     0.078000000000     0.050800000000     0          
T        Si     0.443333333333     0.142133333333     0.125000000000     0          
O        O      0.345500000000     0.229600000000     0.168425000000     0          
O        O      0.665000000000     0.242366666667     0.000000000000     0          
T        Si     0.666600000000     0.255266666667     0.199200000000     0          
T        Si     0.365466666667     0.223333333333     0.125000000000     0          
O        O      0.550766666667     0.321166666667     0.081575000000     0          
T        Si     0.588666666667     0.000066666667     0.050800000000     0          
O        O      0.437066666667     0.115900000000     0.168425000000     0          
T        Si     0.411400000000     0.078000000000     0.199200000000     0          
O        O      0.345500000000     0.229600000000     0.081575000000     0          
T        Si     0.666600000000     0.255266666667     0.050800000000     0          
O        O      0.365366666667     0.064033333333     0.306100000000     0          
O        O      0.623933333333     0.042733333333     0.315450000000     0          
O        O      0.345500000000     0.115900000000     0.331575000000     0          
O        O      0.665000000000     0.089300000000     0.250000000000     0          
O        O      0.411966666667     0.157266666667     0.375000000000     0          
O        O      0.358533333333     0.179266666667     0.375000000000     0          
T        Si     0.666600000000     0.078000000000     0.300800000000     0          
T        Si     0.365466666667     0.142133333333     0.375000000000     0          
O        O      0.365333333333     0.301300000000     0.443900000000     0          
O        O      0.418800000000     0.042733333333     0.434550000000     0          
O        O      0.437066666667     0.321166666667     0.418425000000     0          
O        O      0.424300000000     0.001666666667     0.250000000000     0          
O        O      0.411966666667     0.254700000000     0.375000000000     0          
O        O      0.487400000000     0.308133333333     0.375000000000     0          
T        Si     0.411400000000     0.000066666667     0.449200000000     0          
T        Si     0.443333333333     0.301200000000     0.375000000000     0          
O        O      0.602633333333     0.301333333333     0.306100000000     0          
O        O      0.623933333333     0.247866666667     0.315450000000     0          
O        O      0.550766666667     0.229600000000     0.331575000000     0          
O        O      0.577366666667     0.242366666667     0.250000000000     0          
O        O      0.509400000000     0.254700000000     0.375000000000     0          
O        O      0.487400000000     0.179266666667     0.375000000000     0          
T        Si     0.588666666667     0.255266666667     0.300800000000     0          
T        Si     0.524533333333     0.223333333333     0.375000000000     0          
O        O      0.365366666667     0.064033333333     0.443900000000     0          
O        O      0.623933333333     0.042733333333     0.434550000000     0          
O        O      0.345500000000     0.115900000000     0.418425000000     0          
T        Si     0.666600000000     0.078000000000     0.449200000000     0          
O        O      0.365333333333     0.301300000000     0.306100000000     0          
O        O      0.418800000000     0.042733333333     0.315450000000     0          
O        O      0.437066666667     0.321166666667     0.331575000000     0          
T        Si     0.411400000000     0.000066666667     0.300800000000     0          
O        O      0.602633333333     0.301333333333     0.443900000000     0          
O        O      0.623933333333     0.247866666667     0.434550000000     0          
O        O      0.550766666667     0.229600000000     0.418425000000     0          
T        Si     0.588666666667     0.255266666667     0.449200000000     0          
O        O      0.550766666667     0.321166666667     0.418425000000     0          
O        O      0.577366666667     0.001666666667     0.250000000000     0          
T        Si     0.588666666667     0.000066666667     0.449200000000     0          
T        Si     0.524533333333     0.301200000000     0.375000000000     0          
O        O      0.437066666667     0.115900000000     0.331575000000     0          
O        O      0.424300000000     0.089300000000     0.250000000000     0          
T        Si     0.411400000000     0.078000000000     0.300800000000     0          
T        Si     0.443333333333     0.142133333333     0.375000000000     0          
O        O      0.345500000000     0.229600000000     0.418425000000     0          
O        O      0.665000000000     0.242366666667     0.250000000000     0          
T        Si     0.666600000000     0.255266666667     0.449200000000     0          
T        Si     0.365466666667     0.223333333333     0.375000000000     0          
O        O      0.550766666667     0.321166666667     0.331575000000     0          
T        Si     0.588666666667     0.000066666667     0.300800000000     0          
O        O      0.437066666667     0.115900000000     0.418425000000     0          
T        Si     0.411400000000     0.078000000000     0.449200000000     0          
O        O      0.345500000000     0.229600000000     0.331575000000     0          
T        Si     0.666600000000     0.255266666667     0.300800000000     0          
O        O      0.365366666667     0.064033333333     0.556100000000     0          
O        O      0.623933333333     0.042733333333     0.565450000000     0          
O        O      0.345500000000     0.115900000000     0.581575000000     0          
O        O      0.665000000000     0.089300000000     0.500000000000     0          
O        O      0.411966666667     0.157266666667     0.625000000000     0          
O        O      0.358533333333     0.179266666667     0.625000000000     0          
T        Si     0.666600000000     0.078000000000     0.550800000000     0          
T        Si     0.365466666667     0.142133333333     0.625000000000     0          
O        O      0.365333333333     0.301300000000     0.693900000000     0          
O        O      0.418800000000     0.042733333333     0.684550000000     0          
O        O      0.437066666667     0.321166666667     0.668425000000     0          
O        O      0.424300000000     0.001666666667     0.500000000000     0          
O        O      0.411966666667     0.254700000000     0.625000000000     0          
O        O      0.487400000000     0.308133333333     0.625000000000     0          
T        Si     0.411400000000     0.000066666667     0.699200000000     0          
T        Si     0.443333333333     0.301200000000     0.625000000000     0          
O        O      0.602633333333     0.301333333333     0.556100000000     0          
O        O      0.623933333333     0.247866666667     0.565450000000     0          
O        O      0.550766666667     0.229600000000     0.581575000000     0          
O        O      0.577366666667     0.242366666667     0.500000000000     0          
O        O      0.509400000000     0.254700000000     0.625000000000     0          
O        O      0.487400000000     0.179266666667     0.625000000000     0          
T        Si     0.588666666667     0.255266666667     0.550800000000     0          
T        Si     0.524533333333     0.223333333333     0.625000000000     0          
O        O      0.365366666667     0.064033333333     0.693900000000     0          
O        O      0.623933333333     0.042733333333     0.684550000000     0          
O        O      0.345500000000     0.115900000000     0.668425000000     0          
T        Si     0.666600000000     0.078000000000     0.699200000000     0          
O        O      0.365333333333     0.301300000000     0.556100000000     0          
O        O      0.418800000000     0.042733333333     0.565450000000     0          
O        O      0.437066666667     0.321166666667     0.581575000000     0          
T        Si     0.411400000000     0.000066666667     0.550800000000     0          
O        O      0.602633333333     0.301333333333     0.693900000000     0          
O        O      0.623933333333     0.247866666667     0.684550000000     0          
O        O      0.550766666667     0.229600000000     0.668425000000     0          
T        Si     0.588666666667     0.255266666667     0.699200000000     0          
O        O      0.550766666667     0.321166666667     0.668425000000     0          
O        O      0.577366666667     0.001666666667     0.500000000000     0          
T        Si     0.588666666667     0.000066666667     0.699200000000     0          
T        Si     0.524533333333     0.301200000000     0.625000000000     0          
O        O      0.437066666667     0.115900000000     0.581575000000     0          
O        O      0.424300000000     0.089300000000     0.500000000000     0          
T        Si     0.411400000000     0.078000000000     0.550800000000     0          
T        Si     0.443333333333     0.142133333333     0.625000000000     0          
O        O      0.345500000000     0.229600000000     0.668425000000     0          
O        O      0.665000000000     0.242366666667     0.500000000000     0          
T        Si     0.666600000000     0.255266666667     0.699200000000     0          
T        Si     0.365466666667     0.223333333333     0.625000000000     0          
O        O      0.550766666667     0.321166666667     0.581575000000     0          
T        Si     0.588666666667     0.000066666667     0.550800000000     0          
O        O      0.437066666667     0.115900000000     0.668425000000     0          
T        Si     0.411400000000     0.078000000000     0.699200000000     0          
O        O      0.345500000000     0.229600000000     0.581575000000     0          
T        Si     0.666600000000     0.255266666667     0.550800000000     0          
O        O      0.365366666667     0.064033333333     0.806100000000     0          
O        O      0.623933333333     0.042733333333     0.815450000000     0          
O        O      0.345500000000     0.115900000000     0.831575000000     0          
O        O      0.665000000000     0.089300000000     0.750000000000     0          
O        O      0.411966666667     0.157266666667     0.875000000000     0          
O        O      0.358533333333     0.179266666667     0.875000000000     0          
T        Si     0.666600000000     0.078000000000     0.800800000000     0          
T        Si     0.365466666667     0.142133333333     0.875000000000     0          
O        O      0.365333333333     0.301300000000     0.943900000000     0          
O        O      0.418800000000     0.042733333333     0.934550000000     0          
O        O      0.437066666667     0.321166666667     0.918425000000     0          
O        O      0.424300000000     0.001666666667     0.750000000000     0          
O        O      0.411966666667     0.254700000000     0.875000000000     0          
O        O      0.487400000000     0.308133333333     0.875000000000     0          
T        Si     0.411400000000     0.000066666667     0.949200000000     0          
T        Si     0.443333333333     0.301200000000     0.875000000000     0          
O        O      0.602633333333     0.301333333333     0.806100000000     0          
O        O      0.623933333333     0.247866666667     0.815450000000     0          
O        O      0.550766666667     0.229600000000     0.831575000000     0          
O        O      0.577366666667     0.242366666667     0.750000000000     0          
O        O      0.509400000000     0.254700000000     0.875000000000     0          
O        O      0.487400000000     0.179266666667     0.875000000000     0          
T        Si     0.588666666667     0.255266666667     0.800800000000     0          
T        Si     0.524533333333     0.223333333333     0.875000000000     0          
O        O      0.365366666667     0.064033333333     0.943900000000     0          
O        O      0.623933333333     0.042733333333     0.934550000000     0          
O        O      0.345500000000     0.115900000000     0.918425000000     0          
T        Si     0.666600000000     0.078000000000     0.949200000000     0          
O        O      0.365333333333     0.301300000000     0.806100000000     0          
O        O      0.418800000000     0.042733333333     0.815450000000     0          
O        O      0.437066666667     0.321166666667     0.831575000000     0          
T        Si     0.411400000000     0.000066666667     0.800800000000     0          
O        O      0.602633333333     0.301333333333     0.943900000000     0          
O        O      0.623933333333     0.247866666667     0.934550000000     0          
O        O      0.550766666667     0.229600000000     0.918425000000     0          
T        Si     0.588666666667     0.255266666667     0.949200000000     0          
O        O      0.550766666667     0.321166666667     0.918425000000     0          
O        O      0.577366666667     0.001666666667     0.750000000000     0          
T        Si     0.588666666667     0.000066666667     0.949200000000     0          
T        Si     0.524533333333     0.301200000000     0.875000000000     0          
O        O      0.437066666667     0.115900000000     0.831575000000     0          
O        O      0.424300000000     0.089300000000     0.750000000000     0          
T        Si     0.411400000000     0.078000000000     0.800800000000     0          
T        Si     0.443333333333     0.142133333333     0.875000000000     0          
O        O      0.345500000000     0.229600000000     0.918425000000     0          
O        O      0.665000000000     0.242366666667     0.750000000000     0          
T        Si     0.666600000000     0.255266666667     0.949200000000     0          
T        Si     0.365466666667     0.223333333333     0.875000000000     0          
O        O      0.550766666667     0.321166666667     0.831575000000     0          
T        Si     0.588666666667     0.000066666667     0.800800000000     0          
O        O      0.437066666667     0.115900000000     0.918425000000     0          
T        Si     0.411400000000     0.078000000000     0.949200000000     0          
O        O      0.345500000000     0.229600000000     0.831575000000     0          
T        Si     0.666600000000     0.255266666667     0.800800000000     0          
O        O      0.365366666667     0.397366666667     0.056100000000     0          
O        O      0.623933333333     0.376066666667     0.065450000000     0          
O        O      0.345500000000     0.449233333333     0.081575000000     0          
O        O      0.665000000000     0.422633333333     0.000000000000     0          
O        O      0.411966666667     0.490600000000     0.125000000000     0          
O        O      0.358533333333     0.512600000000     0.125000000000     0          
T        Si     0.666600000000     0.411333333333     0.050800000000     0          
T        Si     0.365466666667     0.475466666667     0.125000000000     0          
O        O      0.365333333333     0.634633333333     0.193900000000     0          
O        O      0.418800000000     0.376066666667     0.184550000000     0          
O        O      0.437066666667     0.654500000000     0.168425000000     0          
O        O      0.424300000000     0.335000000000     0.000000000000     0          
O        O      0.411966666667     0.588033333333     0.125000000000     0          
O        O      0.487400000000     0.641466666667     0.125000000000     0          
T        Si     0.411400000000     0.333400000000     0.199200000000     0          
T        Si     0.443333333333     0.634533333333     0.125000000000     0          
O        O      0.602633333333     0.634666666667     0.056100000000     0          
O        O      0.623933333333     0.581200000000     0.065450000000     0          
O        O      0.550766666667     0.562933333333     0.081575000000     0          
O        O      0.577366666667     0.575700000000     0.000000000000     0          
O        O      0.509400000000     0.588033333333     0.125000000000     0          
O        O      0.487400000000     0.512600000000     0.125000000000     0          
T        Si     0.588666666667     0.588600000000     0.050800000000     0          
T        Si     0.524533333333     0.556666666667     0.125000000000     0          
O        O      0.365366666667     0.397366666667     0.193900000000     0          
O        O      0.623933333333     0.376066666667     0.184550000000     0          
O        O      0.345500000000     0.449233333333     0.168425000000     0          
T        Si     0.666600000000     0.411333333333     0.199200000000     0          
O        O      0.365333333333     0.634633333333     0.056100000000     0          
O        O      0.418800000000     0.376066666667     0.065450000000     0          
O        O      0.437066666667     0.654500000000     0.081575000000     0          
T        Si     0.411400000000     0.333400000000     0.050800000000     0          
O        O      0.602633333333     0.634666666667     0.193900000000     0          
O        O      0.623933333333     0.581200000000     0.184550000000     0          
O        O      0.550766666667     0.562933333333     0.168425000000     0          
T        Si     0.588666666667     0.588600000000     0.199200000000     0          
O        O      0.550766666667     0.654500000000     0.168425000000     0          
O        O      0.577366666667     0.335000000000     0.000000000000     0          
T        Si     0.588666666667     0.333400000000     0.199200000000     0          
T        Si     0.524533333333     0.634533333333     0.125000000000     0          
O        O      0.437066666667     0.449233333333     0.081575000000     0          
O        O      0.424300000000     0.422633333333     0.000000000000     0          
T        Si     0.411400000000     0.411333333333     0.050800000000     0          
T        Si     0.443333333333     0.475466666667     0.125000000000     0          
O        O      0.345500000000     0.562933333333     0.168425000000     0          
O        O      0.665000000000     0.575700000000     0.000000000000     0          
T        Si     0.666600000000     0.588600000000     0.199200000000     0          
T        Si     0.365466666667     0.556666666667     0.125000000000     0          
O        O      0.550766666667     0.654500000000     0.081575000000     0          
T        Si     0.588666666667     0.333400000000     0.050800000000     0          
O        O      0.437066666667     0.449233333333     0.168425000000     0          
T        Si     0.411400000000     0.411333333333     0.199200000000     0          
O        O      0.345500000000     0.562933333333     0.081575000000     0          
T        Si     0.666600000000     0.588600000000     0.050800000000     0          
O        O      0.365366666667     0.397366666667     0.306100000000     0          
O        O      0.623933333333     0.376066666667     0.315450000000     0          
O        O      0.345500000000     0.449233333333     0.331575000000     0          
O        O      0.665000000000     0.422633333333     0.250000000000     0          
O        O      0.411966666667     0.490600000000     0.375000000000     0          
O        O      0.358533333333     0.512600000000     0.375000000000     0          
T        Si     0.666600000000     0.411333333333     0.300800000000     0          
T        Si     0.365466666667     0.475466666667     0.375000000000     0          
O        O      0.365333333333     0.634633333333     0.443900000000     0          
O        O      0.418800000000     0.376066666667     0.434550000000     0          
O        O      0.437066666667     0.654500000000     0.418425000000     0          
O        O      0.424300000000     0.335000000000     0.250000000000     0          
O        O      0.411966666667     0.588033333333     0.375000000000     0          
O        O      0.487400000000     0.641466666667     0.375000000000     0          
T        Si     0.411400000000     0.333400000000     0.449200000000     0          
T        Si     0.443333333333     0.634533333333     0.375000000000     0          
O        O      0.602633333333     0.634666666667     0.306100000000     0          
O        O      0.623933333333     0.581200000000     0.315450000000     0          
O        O      0.550766666667     0.562933333333     0.331575000000     0          
O        O      0.577366666667     0.575700000000     0.250000000000     0          
O        O      0.509400000000     0.588033333333     0.375000000000     0          
O        O      0.487400000000     0.512600000000     0.375000000000     0          
T        Si     0.588666666667     0.588600000000     0.300800000000     0          
T        Si     0.524533333333     0.556666666667     0.375000000000     0          
O        O      0.365366666667     0.397366666667     0.443900000000     0          
O        O      0.623933333333     0.376066666667     0.434550000000     0          
O        O      0.345500000000     0.449233333333     0.418425000000     0          
T        Si     0.666600000000     0.411333333333     0.449200000000     0          
O        O      0.365333333333     0.634633333333     0.306100000000     0          
O        O      0.418800000000     0.376066666667     0.315450000000     0          
O        O      0.437066666667     0.654500000000     0.331575000000     0          
T        Si     0.411400000000     0.333400000000     0.300800000000     0          
O        O      0.602633333333     0.634666666667     0.443900000000     0          
O        O      0.623933333333     0.581200000000     0.434550000000     0          
O        O      0.550766666667     0.562933333333     0.418425000000     0          
T        Si     0.588666666667     0.588600000000     0.449200000000     0          
O        O      0.550766666667     0.654500000000     0.418425000000     0          
O        O      0.577366666667     0.335000000000     0.250000000000     0          
T        Si     0.588666666667     0.333400000000     0.449200000000     0          
T        Si     0.524533333333     0.634533333333     0.375000000000     0          
O        O      0.437066666667     0.449233333333     0.331575000000     0          
O        O      0.424300000000     0.422633333333     0.250000000000     0          
T        Si     0.411400000000     0.411333333333     0.300800000000     0          
T        Si     0.443333333333     0.475466666667     0.375000000000     0          
O        O      0.345500000000     0.562933333333     0.418425000000     0          
O        O      0.665000000000     0.575700000000     0.250000000000     0          
T        Si     0.666600000000     0.588600000000     0.449200000000     0          
T        Si     0.365466666667     0.556666666667     0.375000000000     0          
O        O      0.550766666667     0.654500000000     0.331575000000     0          
T        Si     0.588666666667     0.333400000000     0.300800000000     0          
O        O      0.437066666667     0.449233333333     0.418425000000     0          
T        Si     0.411400000000     0.411333333333     0.449200000000     0          
O        O      0.345500000000     0.562933333333     0.331575000000     0          
T        Si     0.666600000000     0.588600000000     0.300800000000     0          
O        O      0.365366666667     0.397366666667     0.556100000000     0          
O        O      0.623933333333     0.376066666667     0.565450000000     0          
O        O      0.345500000000     0.449233333333     0.581575000000     0          
O        O      0.665000000000     0.422633333333     0.500000000000     0          
O        O      0.411966666667     0.490600000000     0.625000000000     0          
O        O      0.358533333333     0.512600000000     0.625000000000     0          
T        Si     0.666600000000     0.411333333333     0.550800000000     0          
T        Si     0.365466666667     0.475466666667     0.625000000000     0          
O        O      0.365333333333     0.634633333333     0.693900000000     0          
O        O      0.418800000000     0.376066666667     0.684550000000     0          
O        O      0.437066666667     0.654500000000     0.668425000000     0          
O        O      0.424300000000     0.335000000000     0.500000000000     0          
O        O      0.411966666667     0.588033333333     0.625000000000     0          
O        O      0.487400000000     0.641466666667     0.625000000000     0          
T        Si     0.411400000000     0.333400000000     0.699200000000     0          
T        Si     0.443333333333     0.634533333333     0.625000000000     0          
O        O      0.602633333333     0.634666666667     0.556100000000     0          
O        O      0.623933333333     0.581200000000     0.565450000000     0          
O        O      0.550766666667     0.562933333333     0.581575000000     0          
O        O      0.577366666667     0.575700000000     0.500000000000     0          
O        O      0.509400000000     0.588033333333     0.625000000000     0          
O        O      0.487400000000     0.512600000000     0.625000000000     0          
T        Si     0.588666666667     0.588600000000     0.550800000000     0          
T        Si     0.524533333333     0.556666666667     0.625000000000     0          
O        O      0.365366666667     0.397366666667     0.693900000000     0          
O        O      0.623933333333     0.376066666667     0.684550000000     0          
O        O      0.345500000000     0.449233333333     0.668425000000     0          
T        Si     0.666600000000     0.411333333333     0.699200000000     0          
O        O      0.365333333333     0.634633333333     0.556100000000     0          
O        O      0.418800000000     0.376066666667     0.565450000000     0          
O        O      0.437066666667     0.654500000000     0.581575000000     0          
T        Si     0.411400000000     0.333400000000     0.550800000000     0          
O        O      0.602633333333     0.634666666667     0.693900000000     0          
O        O      0.623933333333     0.581200000000     0.684550000000     0          
O        O      0.550766666667     0.562933333333     0.668425000000     0          
T        Si     0.588666666667     0.588600000000     0.699200000000     0          
O        O      0.550766666667     0.654500000000     0.668425000000     0          
O        O      0.577366666667     0.335000000000     0.500000000000     0          
T        Si     0.588666666667     0.333400000000     0.699200000000     0          
T        Si     0.524533333333     0.634533333333     0.625000000000     0          
O        O      0.437066666667     0.449233333333     0.581575000000     0          
O        O      0.424300000000     0.422633333333     0.500000000000     0          
T        Si     0.411400000000     0.411333333333     0.550800000000     0          
T        Si     0.443333333333     0.475466666667     0.625000000000     0          
O        O      0.345500000000     0.562933333333     0.668425000000     0          
O        O      0.665000000000     0.575700000000     0.500000000000     0          
T        Si     0.666600000000     0.588600000000     0.699200000000     0          
T        Si     0.365466666667     0.556666666667     0.625000000000     0          
O        O      0.550766666667     0.654500000000     0.581575000000     0          
T        Si     0.588666666667     0.333400000000     0.550800000000     0          
O        O      0.437066666667     0.449233333333     0.668425000000     0          
T        Si     0.411400000000     0.411333333333     0.699200000000     0          
O        O      0.345500000000     0.562933333333     0.581575000000     0          
T        Si     0.666600000000     0.588600000000     0.550800000000     0          
O        O      0.365366666667     0.397366666667     0.806100000000     0          
O        O      0.623933333333     0.376066666667     0.815450000000     0          
O        O      0.345500000000     0.449233333333     0.831575000000     0          
O        O      0.665000000000     0.422633333333     0.750000000000     0          
O        O      0.411966666667     0.490600000000     0.875000000000     0          
O        O      0.358533333333     0.512600000000     0.875000000000     0          
T        Si     0.666600000000     0.411333333333     0.800800000000     0          
T        Si     0.365466666667     0.475466666667     0.875000000000     0          
O        O      0.365333333333     0.634633333333     0.943900000000     0          
O        O      0.418800000000     0.376066666667     0.934550000000     0          
O        O      0.437066666667     0.654500000000     0.918425000000     0          
O        O      0.424300000000     0.335000000000     0.750000000000     0          
O        O      0.411966666667     0.588033333333     0.875000000000     0          
O        O      0.487400000000     0.641466666667     0.875000000000     0          
T        Si     0.411400000000     0.333400000000     0.949200000000     0          
T        Si     0.443333333333     0.634533333333     0.875000000000     0          
O        O      0.602633333333     0.634666666667     0.806100000000     0          
O        O      0.623933333333     0.581200000000     0.815450000000     0          
O        O      0.550766666667     0.562933333333     0.831575000000     0          
O        O      0.577366666667     0.575700000000     0.750000000000     0          
O        O      0.509400000000     0.588033333333     0.875000000000     0          
O        O      0.487400000000     0.512600000000     0.875000000000     0          
T        Si     0.588666666667     0.588600000000     0.800800000000     0          
T        Si     0.524533333333     0.556666666667     0.875000000000     0          
O        O      0.365366666667     0.397366666667     0.943900000000     0          
O        O      0.623933333333     0.376066666667     0.934550000000     0          
O        O      0.345500000000     0.449233333333     0.918425000000     0          
T        Si     0.666600000000     0.411333333333     0.949200000000     0          
O        O      0.365333333333     0.634633333333     0.806100000000     0          
O        O      0.418800000000     0.376066666667     0.815450000000     0          
O        O      0.437066666667     0.654500000000     0.831575000000     0          
T        Si     0.411400000000     0.333400000000     0.800800000000     0          
O        O      0.602633333333     0.634666666667     0.943900000000     0          
O        O      0.623933333333     0.581200000000     0.934550000000     0          
O        O      0.550766666667     0.562933333333     0.918425000000     0          
T        Si     0.588666666667     0.588600000000     0.949200000000     0          
O        O      0.550766666667     0.654500000000     0.918425000000     0          
O        O      0.577366666667     0.335000000000     0.750000000000     0          
T        Si     0.588666666667     0.333400000000     0.949200000000     0          
T        Si     0.524533333333     0.634533333333     0.875000000000     0          
O        O      0.437066666667     0.449233333333     0.831575000000     0          
O        O      0.424300000000     0.422633333333     0.750000000000     0          
T        Si     0.411400000000     0.411333333333     0.800800000000     0          
T        Si     0.443333333333     0.475466666667     0.875000000000     0          
O        O      0.345500000000     0.562933333333     0.918425000000     0          
O        O      0.665000000000     0.575700000000     0.750000000000     0          
T        Si     0.666600000000     0.588600000000     0.949200000000     0          
T        Si     0.365466666667     0.556666666667     0.875000000000     0          
O        O      0.550766666667     0.654500000000     0.831575000000     0          
T        Si     0.588666666667     0.333400000000     0.800800000000     0          
O        O      0.437066666667     0.449233333333     0.918425000000     0          
T        Si     0.411400000000     0.411333333333     0.949200000000     0          
O        O      0.345500000000     0.562933333333     0.831575000000     0          
T        Si     0.666600000000     0.588600000000     0.800800000000     0          
O        O      0.365366666667     0.730700000000     0.056100000000     0          
O        O      0.623933333333     0.709400000000     0.065450000000     0          
O        O      0.345500000000     0.782566666667     0.081575000000     0          
O        O      0.665000000000     0.755966666667     0.000000000000     0          
O        O      0.411966666667     0.823933333333     0.125000000000     0          
O        O      0.358533333333     0.845933333333     0.125000000000     0          
T        Si     0.666600000000     0.744666666667     0.050800000000     0          
T        Si     0.365466666667     0.808800000000     0.125000000000     0          
O        O      0.365333333333     0.967966666667     0.193900000000     0          
O        O      0.418800000000     0.709400000000     0.184550000000     0          
O        O      0.437066666667     0.987833333333     0.168425000000     0          
O        O      0.424300000000     0.668333333333     0.000000000000     0          
O        O      0.411966666667     0.921366666667     0.125000000000     0          
O        O      0.487400000000     0.974800000000     0.125000000000     0          
T        Si     0.411400000000     0.666733333333     0.199200000000     0          
T        Si     0.443333333333     0.967866666667     0.125000000000     0          
O        O      0.602633333333     0.968000000000     0.056100000000     0          
O        O      0.623933333333     0.914533333333     0.065450000000     0          
O        O      0.550766666667     0.896266666667     0.081575000000     0          
O        O      0.577366666667     0.909033333333     0.000000000000     0          
O        O      0.509400000000     0.921366666667     0.125000000000     0          
O        O      0.487400000000     0.845933333333     0.125000000000     0          
T        Si     0.588666666667     0.921933333333     0.050800000000     0          
T        Si     0.524533333333     0.890000000000     0.125000000000     0          
O        O      0.365366666667     0.730700000000     0.193900000000     0          
O        O      0.623933333333     0.709400000000     0.184550000000     0          
O        O      0.345500000000     0.782566666667     0.168425000000     0          
T        Si     0.666600000000     0.744666666667     0.199200000000     0          
O        O      0.365333333333     0.967966666667     0.056100000000     0          
O        O      0.418800000000     0.709400000000     0.065450000000     0          
O        O      0.437066666667     0.987833333333     0.081575000000     0          
T        Si     0.411400000000     0.666733333333     0.050800000000     0          
O        O      0.602633333333     0.968000000000     0.193900000000     0          
O        O      0.623933333333     0.914533333333     0.184550000000     0          
O        O      0.550766666667     0.896266666667     0.168425000000     0          
T        Si     0.588666666667     0.921933333333     0.199200000000     0          
O        O      0.550766666667     0.987833333333     0.168425000000     0          
O        O      0.577366666667     0.668333333333     0.000000000000     0          
T        Si     0.588666666667     0.666733333333     0.199200000000     0          
T        Si     0.524533333333     0.967866666667     0.125000000000     0          
O        O      0.437066666667     0.782566666667     0.081575000000     0          
O        O      0.424300000000     0.755966666667     0.000000000000     0          
T        Si     0.411400000000     0.744666666667     0.050800000000     0          
T        Si     0.443333333333     0.808800000000     0.125000000000     0          
O        O      0.345500000000     0.896266666667     0.168425000000     0          
O        O      0.665000000000     0.909033333333     0.000000000000     0          
T        Si     0.666600000000     0.921933333333     0.199200000000     0          
T        Si     0.365466666667     0.890000000000     0.125000000000     0          
O        O      0.550766666667     0.987833333333     0.081575000000     0          
T        Si     0.588666666667     0.666733333333     0.050800000000     0          
O        O      0.437066666667     0.782566666667     0.168425000000     0          
T        Si     0.411400000000     0.744666666667     0.199200000000     0          
O        O      0.345500000000     0.896266666667     0.081575000000     0          
T        Si     0.666600000000     0.921933333333     0.050800000000     0          
O        O      0.365366666667     0.730700000000     0.306100000000     0          
O        O      0.623933333333     0.709400000000     0.315450000000     0          
O        O      0.345500000000     0.782566666667     0.331575000000     0          
O        O      0.665000000000     0.755966666667     0.250000000000     0          
O        O      0.411966666667     0.823933333333     0.375000000000     0          
O        O      0.358533333333     0.845933333333     0.375000000000     0          
T        Si     0.666600000000     0.744666666667     0.300800000000     0          
T        Si     0.365466666667     0.808800000000     0.375000000000     0          
O        O      0.365333333333     0.967966666667     0.443900000000     0          
O        O      0.418800000000     0.709400000000     0.434550000000     0          
O        O      0.437066666667     0.987833333333     0.418425000000     0          
O        O      0.424300000000     0.668333333333     0.250000000000     0          
O        O      0.411966666667     0.921366666667     0.375000000000     0          
O        O      0.487400000000     0.974800000000     0.375000000000     0          
T        Si     0.411400000000     0.666733333333     0.449200000000     0          
T        Si     0.443333333333     0.967866666667     0.375000000000     0          
O        O      0.602633333333     0.968000000000     0.306100000000     0          
O        O      0.623933333333     0.914533333333     0.315450000000     0          
O        O      0.550766666667     0.896266666667     0.331575000000     0          
O        O      0.577366666667     0.909033333333     0.250000000000     0          
O        O      0.509400000000     0.921366666667     0.375000000000     0          
O        O      0.487400000000     0.845933333333     0.375000000000     0          
T        Si     0.588666666667     0.921933333333     0.300800000000     0          
T        Si     0.524533333333     0.890000000000     0.375000000000     0          
O        O      0.365366666667     0.730700000000     0.443900000000     0          
O        O      0.623933333333     0.709400000000     0.434550000000     0          
O        O      0.345500000000     0.782566666667     0.418425000000     0          
T        Si     0.666600000000     0.744666666667     0.449200000000     0          
O        O      0.365333333333     0.967966666667     0.306100000000     0          
O        O      0.418800000000     0.709400000000     0.315450000000     0          
O        O      0.437066666667     0.987833333333     0.331575000000     0          
T        Si     0.411400000000     0.666733333333     0.300800000000     0          
O        O      0.602633333333     0.968000000000     0.443900000000     0          
O        O      0.623933333333     0.914533333333     0.434550000000     0          
O        O      0.550766666667     0.896266666667     0.418425000000     0          
T        Si     0.588666666667     0.921933333333     0.449200000000     0          
O        O      0.550766666667     0.987833333333     0.418425000000     0          
O        O      0.577366666667     0.668333333333     0.250000000000     0          
T        Si     0.588666666667     0.666733333333     0.449200000000     0          
T        Si     0.524533333333     0.967866666667     0.375000000000     0          
O        O      0.437066666667     0.782566666667     0.331575000000     0          
O        O      0.424300000000     0.755966666667     0.250000000000     0          
T        Si     0.411400000000     0.744666666667     0.300800000000     0          
T        Si     0.443333333333     0.808800000000     0.375000000000     0          
O        O      0.345500000000     0.896266666667     0.418425000000     0          
O        O      0.665000000000     0.909033333333     0.250000000000     0          
T        Si     0.666600000000     0.921933333333     0.449200000000     0          
T        Si     0.365466666667     0.890000000000     0.375000000000     0          
O        O      0.550766666667     0.987833333333     0.331575000000     0          
T        Si     0.588666666667     0.666733333333     0.300800000000     0          
O        O      0.437066666667     0.782566666667     0.418425000000     0          
T        Si     0.411400000000     0.744666666667     0.449200000000     0          
O        O      0.345500000000     0.896266666667     0.331575000000     0          
T        Si     0.666600000000     0.921933333333     0.300800000000     0          
O        O      0.365366666667     0.730700000000     0.556100000000     0          
O        O      0.623933333333     0.709400000000     0.565450000000     0          
O        O      0.345500000000     0.782566666667     0.581575000000     0          
O        O      0.665000000000     0.755966666667     0.500000000000     0          
O        O      0.411966666667     0.823933333333     0.625000000000     0          
O        O      0.358533333333     0.845933333333     0.625000000000     0          
T        Si     0.666600000000     0.744666666667     0.550800000000     0          
T        Si     0.365466666667     0.808800000000     0.625000000000     0          
O        O      0.365333333333     0.967966666667     0.693900000000     0          
O        O      0.418800000000     0.709400000000     0.684550000000     0          
O        O      0.437066666667     0.987833333333     0.668425000000     0          
O        O      0.424300000000     0.668333333333     0.500000000000     0          
O        O      0.411966666667     0.921366666667     0.625000000000     0          
O        O      0.487400000000     0.974800000000     0.625000000000     0          
T        Si     0.411400000000     0.666733333333     0.699200000000     0          
T        Si     0.443333333333     0.967866666667     0.625000000000     0          
O        O      0.602633333333     0.968000000000     0.556100000000     0          
O        O      0.623933333333     0.914533333333     0.565450000000     0          
O        O      0.550766666667     0.896266666667     0.581575000000     0          
O        O      0.577366666667     0.909033333333     0.500000000000     0          
O        O      0.509400000000     0.921366666667     0.625000000000     0          
O        O      0.487400000000     0.845933333333     0.625000000000     0          
T        Si     0.588666666667     0.921933333333     0.550800000000     0          
T        Si     0.524533333333     0.890000000000     0.625000000000     0          
O        O      0.365366666667     0.730700000000     0.693900000000     0          
O        O      0.623933333333     0.709400000000     0.684550000000     0          
O        O      0.345500000000     0.782566666667     0.668425000000     0          
T        Si     0.666600000000     0.744666666667     0.699200000000     0          
O        O      0.365333333333     0.967966666667     0.556100000000     0          
O        O      0.418800000000     0.709400000000     0.565450000000     0          
O        O      0.437066666667     0.987833333333     0.581575000000     0          
T        Si     0.411400000000     0.666733333333     0.550800000000     0          
O        O      0.602633333333     0.968000000000     0.693900000000     0          
O        O      0.623933333333     0.914533333333     0.684550000000     0          
O        O      0.550766666667     0.896266666667     0.668425000000     0          
T        Si     0.588666666667     0.921933333333     0.699200000000     0          
O        O      0.550766666667     0.987833333333     0.668425000000     0          
O        O      0.577366666667     0.668333333333     0.500000000000     0          
T        Si     0.588666666667     0.666733333333     0.699200000000     0          
T        Si     0.524533333333     0.967866666667     0.625000000000     0          
O        O      0.437066666667     0.782566666667     0.581575000000     0          
O        O      0.424300000000     0.755966666667     0.500000000000     0          
T        Si     0.411400000000     0.744666666667     0.550800000000     0          
T        Si     0.443333333333     0.808800000000     0.625000000000     0          
O        O      0.345500000000     0.896266666667     0.668425000000     0          
O        O      0.665000000000     0.909033333333     0.500000000000     0          
T        Si     0.666600000000     0.921933333333     0.699200000000     0          
T        Si     0.365466666667     0.890000000000     0.625000000000     0          
O        O      0.550766666667     0.987833333333     0.581575000000     0          
T        Si     0.588666666667     0.666733333333     0.550800000000     0          
O        O      0.437066666667     0.782566666667     0.668425000000     0          
T        Si     0.411400000000     0.744666666667     0.699200000000     0          
O        O      0.345500000000     0.896266666667     0.581575000000     0          
T        Si     0.666600000000     0.921933333333     0.550800000000     0          
O        O      0.365366666667     0.730700000000     0.806100000000     0          
O        O      0.623933333333     0.709400000000     0.815450000000     0          
O        O      0.345500000000     0.782566666667     0.831575000000     0          
O        O      0.665000000000     0.755966666667     0.750000000000     0          
O        O      0.411966666667     0.823933333333     0.875000000000     0          
O        O      0.358533333333     0.845933333333     0.875000000000     0          
T        Si     0.666600000000     0.744666666667     0.800800000000     0          
T        Si     0.365466666667     0.808800000000     0.875000000000     0          
O        O      0.365333333333     0.967966666667     0.943900000000     0          
O        O      0.418800000000     0.709400000000     0.934550000000     0          
O        O      0.437066666667     0.987833333333     0.918425000000     0          
O        O      0.424300000000     0.668333333333     0.750000000000     0          
O        O      0.411966666667     0.921366666667     0.875000000000     0          
O        O      0.487400000000     0.974800000000     0.875000000000     0          
T        Si     0.411400000000     0.666733333333     0.949200000000     0          
T        Si     0.443333333333     0.967866666667     0.875000000000     0          
O        O      0.602633333333     0.968000000000     0.806100000000     0          
O        O      0.623933333333     0.914533333333     0.815450000000     0          
O        O      0.550766666667     0.896266666667     0.831575000000     0          
O        O      0.577366666667     0.909033333333     0.750000000000     0          
O        O      0.509400000000     0.921366666667     0.875000000000     0          
O        O      0.487400000000     0.845933333333     0.875000000000     0          
T        Si     0.588666666667     0.921933333333     0.800800000000     0          
T        Si     0.524533333333     0.890000000000     0.875000000000     0          
O        O      0.365366666667     0.730700000000     0.943900000000     0          
O        O      0.623933333333     0.709400000000     0.934550000000     0          
O        O      0.345500000000     0.782566666667     0.918425000000     0          
T        Si     0.666600000000     0.744666666667     0.949200000000     0          
O        O      0.365333333333     0.967966666667     0.806100000000     0          
O        O      0.418800000000     0.709400000000     0.815450000000     0          
O        O      0.437066666667     0.987833333333     0.831575000000     0          
T        Si     0.411400000000     0.666733333333     0.800800000000     0          
O        O      0.602633333333     0.968000000000     0.943900000000     0          
O        O      0.623933333333     0.914533333333     0.934550000000     0          
O        O      0.550766666667     0.896266666667     0.918425000000     0          
T        Si     0.588666666667     0.921933333333     0.949200000000     0          
O        O      0.550766666667     0.987833333333     0.918425000000     0          
O        O      0.577366666667     0.668333333333     0.750000000000     0          
T        Si     0.588666666667     0.666733333333     0.949200000000     0          
T        Si     0.524533333333     0.967866666667     0.875000000000     0          
O        O      0.437066666667     0.782566666667     0.831575000000     0          
O        O      0.424300000000     0.755966666667     0.750000000000     0          
T        Si     0.411400000000     0.744666666667     0.800800000000     0          
T        Si     0.443333333333     0.808800000000     0.875000000000     0          
O        O      0.345500000000     0.896266666667     0.918425000000     0          
O        O      0.665000000000     0.909033333333     0.750000000000     0          
T        Si     0.666600000000     0.921933333333     0.949200000000     0          
T        Si     0.365466666667     0.890000000000     0.875000000000     0          
O        O      0.550766666667     0.987833333333     0.831575000000     0          
T        Si     0.588666666667     0.666733333333     0.800800000000     0          
O        O      0.437066666667     0.782566666667     0.918425000000     0          
T        Si     0.411400000000     0.744666666667     0.949200000000     0          
O        O      0.345500000000     0.896266666667     0.831575000000     0          
T        Si     0.666600000000     0.921933333333     0.800800000000     0          
O        O      0.698700000000     0.064033333333     0.056100000000     0          
O        O      0.957266666667     0.042733333333     0.065450000000     0          
O        O      0.678833333333     0.115900000000     0.081575000000     0          
O        O      0.998333333333     0.089300000000     0.000000000000     0          
O        O      0.745300000000     0.157266666667     0.125000000000     0          
O        O      0.691866666667     0.179266666667     0.125000000000     0          
T        Si     0.999933333333     0.078000000000     0.050800000000     0          
T        Si     0.698800000000     0.142133333333     0.125000000000     0          
O        O      0.698666666667     0.301300000000     0.193900000000     0          
O        O      0.752133333333     0.042733333333     0.184550000000     0          
O        O      0.770400000000     0.321166666667     0.168425000000     0          
O        O      0.757633333333     0.001666666667     0.000000000000     0          
O        O      0.745300000000     0.254700000000     0.125000000000     0          
O        O      0.820733333333     0.308133333333     0.125000000000     0          
T        Si     0.744733333333     0.000066666667     0.199200000000     0          
T        Si     0.776666666667     0.301200000000     0.125000000000     0          
O        O      0.935966666667     0.301333333333     0.056100000000     0          
O        O      0.957266666667     0.247866666667     0.065450000000     0          
O        O      0.884100000000     0.229600000000     0.081575000000     0          
O        O      0.910700000000     0.242366666667     0.000000000000     0          
O        O      0.842733333333     0.254700000000     0.125000000000     0          
O        O      0.820733333333     0.179266666667     0.125000000000     0          
T        Si     0.922000000000     0.255266666667     0.050800000000     0          
T        Si     0.857866666667     0.223333333333     0.125000000000     0          
O        O      0.698700000000     0.064033333333     0.193900000000     0          
O        O      0.957266666667     0.042733333333     0.184550000000     0          
O        O      0.678833333333     0.115900000000     0.168425000000     0          
T        Si     0.999933333333     0.078000000000     0.199200000000     0          
O        O      0.698666666667     0.301300000000     0.056100000000     0          
O        O      0.752133333333     0.042733333333     0.065450000000     0          
O        O      0.770400000000     0.321166666667     0.081575000000     0          
T        Si     0.744733333333     0.000066666667     0.050800000000     0          
O        O      0.935966666667     0.301333333333     0.193900000000     0          
O        O      0.957266666667     0.247866666667     0.184550000000     0          
O        O      0.884100000000     0.229600000000     0.168425000000     0          
T        Si     0.922000000000     0.255266666667     0.199200000000     0          
O        O      0.884100000000     0.321166666667     0.168425000000     0          
O        O      0.910700000000     0.001666666667     0.000000000000     0          
T        Si     0.922000000000     0.000066666667     0.199200000000     0          
T        Si     0.857866666667     0.301200000000     0.125000000000     0          
O        O      0.770400000000     0.115900000000     0.081575000000     0          
O        O      0.757633333333     0.089300000000     0.000000000000     0          
T        Si     0.744733333333     0.078000000000     0.050800000000     0          
T        Si     0.776666666667     0.142133333333     0.125000000000     0          
O        O      0.678833333333     0.229600000000     0.168425000000     0          
O        O      0.998333333333     0.242366666667     0.000000000000     0          
T        Si     0.999933333333     0.255266666667     0.199200000000     0          
T        Si     0.698800000000     0.223333333333     0.125000000000     0          
O        O      0.884100000000     0.321166666667     0.081575000000     0          
T        Si     0.922000000000     0.000066666667     0.050800000000     0          
O        O      0.770400000000     0.115900000000     0.168425000000     0          
T        Si     0.744733333333     0.078000000000     0.199200000000     0          
O        O      0.678833333333     0.229600000000     0.081575000000     0          
T        Si     0.999933333333     0.255266666667     0.050800000000     0          
O        O      0.698700000000     0.064033333333     0.306100000000     0          
O        O      0.957266666667     0.042733333333     0.315450000000     0          
O        O      0.678833333333     0.115900000000     0.331575000000     0          
O        O      0.998333333333     0.089300000000     0.250000000000     0          
O        O      0.745300000000     0.157266666667     0.375000000000     0          
O        O      0.691866666667     0.179266666667     0.375000000000     0          
T        Si     0.999933333333     0.078000000000     0.300800000000     0          
T        Si     0.698800000000     0.142133333333     0.375000000000     0          
O        O      0.698666666667     0.301300000000     0.443900000000     0          
O        O      0.752133333333     0.042733333333     0.434550000000     0          
O        O      0.770400000000     0.321166666667     0.418425000000     0          
O        O      0.757633333333     0.001666666667     0.250000000000     0          
O        O      0.745300000000     0.254700000000     0.375000000000     0          
O        O      0.820733333333     0.308133333333     0.375000000000     0          
T        Si     0.744733333333     0.000066666667     0.449200000000     0          
T        Si     0.776666666667     0.301200000000     0.375000000000     0          
O        O      0.935966666667     0.301333333333     0.306100000000     0          
O        O      0.957266666667     0.247866666667     0.315450000000     0          
O        O      0.884100000000     0.229600000000     0.331575000000     0          
O        O      0.910700000000     0.242366666667     0.250000000000     0          
O        O      0.842733333333     0.254700000000     0.375000000000     0          
O        O      0.820733333333     0.179266666667     0.375000000000     0          
T        Si     0.922000000000     0.255266666667     0.300800000000     0          
T        Si     0.857866666667     0.223333333333     0.375000000000     0          
O        O      0.698700000000     0.064033333333     0.443900000000     0          
O        O      0.957266666667     0.042733333333     0.434550000000     0          
O        O      0.678833333333     0.115900000000     0.418425000000     0          
T        Si     0.999933333333     0.078000000000     0.449200000000     0          
O        O      0.698666666667     0.301300000000     0.306100000000     0          
O        O      0.752133333333     0.042733333333     0.315450000000     0          
O        O      0.770400000000     0.321166666667     0.331575000000     0          
T        Si     0.744733333333     0.000066666667     0.300800000000     0          
O        O      0.935966666667     0.301333333333     0.443900000000     0          
O        O      0.957266666667     0.247866666667     0.434550000000     0          
O        O      0.884100000000     0.229600000000     0.418425000000     0          
T        Si     0.922000000000     0.255266666667     0.449200000000     0          
O        O      0.884100000000     0.321166666667     0.418425000000     0          
O        O      0.910700000000     0.001666666667     0.250000000000     0          
T        Si     0.922000000000     0.000066666667     0.449200000000     0          
T        Si     0.857866666667     0.301200000000     0.375000000000     0          
O        O      0.770400000000     0.115900000000     0.331575000000     0          
O        O      0.757633333333     0.089300000000     0.250000000000     0          
T        Si     0.744733333333     0.078000000000     0.300800000000     0          
T        Si     0.776666666667     0.142133333333     0.375000000000     0          
O        O      0.678833333333     0.229600000000     0.418425000000     0          
O        O      0.998333333333     0.242366666667     0.250000000000     0          
T        Si     0.999933333333     0.255266666667     0.449200000000     0          
T        Si     0.698800000000     0.223333333333     0.375000000000     0          
O        O      0.884100000000     0.321166666667     0.331575000000     0          
T        Si     0.922000000000     0.000066666667     0.300800000000     0          
O        O      0.770400000000     0.115900000000     0.418425000000     0          
T        Si     0.744733333333     0.078000000000     0.449200000000     0          
O        O      0.678833333333     0.229600000000     0.331575000000     0          
T        Si     0.999933333333     0.255266666667     0.300800000000     0          
O        O      0.698700000000     0.064033333333     0.556100000000     0          
O        O      0.957266666667     0.042733333333     0.565450000000     0          
O        O      0.678833333333     0.115900000000     0.581575000000     0          
O        O      0.998333333333     0.089300000000     0.500000000000     0          
O        O      0.745300000000     0.157266666667     0.625000000000     0          
O        O      0.691866666667     0.179266666667     0.625000000000     0          
T        Si     0.999933333333     0.078000000000     0.550800000000     0          
T        Si     0.698800000000     0.142133333333     0.625000000000     0          
O        O      0.698666666667     0.301300000000     0.693900000000     0          
O        O      0.752133333333     0.042733333333     0.684550000000     0          
O        O      0.770400000000     0.321166666667     0.668425000000     0          
O        O      0.757633333333     0.001666666667     0.500000000000     0          
O        O      0.745300000000     0.254700000000     0.625000000000     0          
O        O      0.820733333333     0.308133333333     0.625000000000     0          
T        Si     0.744733333333     0.000066666667     0.699200000000     0          
T        Si     0.776666666667     0.301200000000     0.625000000000     0          
O        O      0.935966666667     0.301333333333     0.556100000000     0          
O        O      0.957266666667     0.247866666667     0.565450000000     0          
O        O      0.884100000000     0.229600000000     0.581575000000     0          
O        O      0.910700000000     0.242366666667     0.500000000000     0          
O        O      0.842733333333     0.254700000000     0.625000000000     0          
O        O      0.820733333333     0.179266666667     0.625000000000     0          
T        Si     0.922000000000     0.255266666667     0.550800000000     0          
T        Si     0.857866666667     0.223333333333     0.625000000000     0          
O        O      0.698700000000     0.064033333333     0.693900000000     0          
O        O      0.957266666667     0.042733333333     0.684550000000     0          
O        O      0.678833333333     0.115900000000     0.668425000000     0          
T        Si     0.999933333333     0.078000000000     0.699200000000     0          
O        O      0.698666666667     0.301300000000     0.556100000000     0          
O        O      0.752133333333     0.042733333333     0.565450000000     0          
O        O      0.770400000000     0.321166666667     0.581575000000     0          
T        Si     0.744733333333     0.000066666667     0.550800000000     0          
O        O      0.935966666667     0.301333333333     0.693900000000     0          
O        O      0.957266666667     0.247866666667     0.684550000000     0          
O        O      0.884100000000     0.229600000000     0.668425000000     0          
T        Si     0.922000000000     0.255266666667     0.699200000000     0          
O        O      0.884100000000     0.321166666667     0.668425000000     0          
O        O      0.910700000000     0.001666666667     0.500000000000     0          
T        Si     0.922000000000     0.000066666667     0.699200000000     0          
T        Si     0.857866666667     0.301200000000     0.625000000000     0          
O        O      0.770400000000     0.115900000000     0.581575000000     0          
O        O      0.757633333333     0.089300000000     0.500000000000     0          
T        Si     0.744733333333     0.078000000000     0.550800000000     0          
T        Si     0.776666666667     0.142133333333     0.625000000000     0          
O        O      0.678833333333     0.229600000000     0.668425000000     0          
O        O      0.998333333333     0.242366666667     0.500000000000     0          
T        Si     0.999933333333     0.255266666667     0.699200000000     0          
T        Si     0.698800000000     0.223333333333     0.625000000000     0          
O        O      0.884100000000     0.321166666667     0.581575000000     0          
T        Si     0.922000000000     0.000066666667     0.550800000000     0          
O        O      0.770400000000     0.115900000000     0.668425000000     0          
T        Si     0.744733333333     0.078000000000     0.699200000000     0          
O        O      0.678833333333     0.229600000000     0.581575000000     0          
T        Si     0.999933333333     0.255266666667     0.550800000000     0          
O        O      0.698700000000     0.064033333333     0.806100000000     0          
O        O      0.957266666667     0.042733333333     0.815450000000     0          
O        O      0.678833333333     0.115900000000     0.831575000000     0          
O        O      0.998333333333     0.089300000000     0.750000000000     0          
O        O      0.745300000000     0.157266666667     0.875000000000     0          
O        O      0.691866666667     0.179266666667     0.875000000000     0          
T        Si     0.999933333333     0.078000000000     0.800800000000     0          
T        Si     0.698800000000     0.142133333333     0.875000000000     0          
O        O      0.698666666667     0.301300000000     0.943900000000     0          
O        O      0.752133333333     0.042733333333     0.934550000000     0          
O        O      0.770400000000     0.321166666667     0.918425000000     0          
O        O      0.757633333333     0.001666666667     0.750000000000     0          
O        O      0.745300000000     0.254700000000     0.875000000000     0          
O        O      0.820733333333     0.308133333333     0.875000000000     0          
T        Si     0.744733333333     0.000066666667     0.949200000000     0          
T        Si     0.776666666667     0.301200000000     0.875000000000     0          
O        O      0.935966666667     0.301333333333     0.806100000000     0          
O        O      0.957266666667     0.247866666667     0.815450000000     0          
O        O      0.884100000000     0.229600000000     0.831575000000     0          
O        O      0.910700000000     0.242366666667     0.750000000000     0          
O        O      0.842733333333     0.254700000000     0.875000000000     0          
O        O      0.820733333333     0.179266666667     0.875000000000     0          
T        Si     0.922000000000     0.255266666667     0.800800000000     0          
T        Si     0.857866666667     0.223333333333     0.875000000000     0          
O        O      0.698700000000     0.064033333333     0.943900000000     0          
O        O      0.957266666667     0.042733333333     0.934550000000     0          
O        O      0.678833333333     0.115900000000     0.918425000000     0          
T        Si     0.999933333333     0.078000000000     0.949200000000     0          
O        O      0.698666666667     0.301300000000     0.806100000000     0          
O        O      0.752133333333     0.042733333333     0.815450000000     0          
O        O      0.770400000000     0.321166666667     0.831575000000     0          
T        Si     0.744733333333     0.000066666667     0.800800000000     0          
O        O      0.935966666667     0.301333333333     0.943900000000     0          
O        O      0.957266666667     0.247866666667     0.934550000000     0          
O        O      0.884100000000     0.229600000000     0.918425000000     0          
T        Si     0.922000000000     0.255266666667     0.949200000000     0          
O        O      0.884100000000     0.321166666667     0.918425000000     0          
O        O      0.910700000000     0.001666666667     0.750000000000     0          
T        Si     0.922000000000     0.000066666667     0.949200000000     0          
T        Si     0.857866666667     0.301200000000     0.875000000000     0          
O        O      0.770400000000     0.115900000000     0.831575000000     0          
O        O      0.757633333333     0.089300000000     0.750000000000     0          
T        Si     0.744733333333     0.078000000000     0.800800000000     0          
T        Si     0.776666666667     0.142133333333     0.875000000000     0          
O        O      0.678833333333     0.229600000000     0.918425000000     0          
O        O      0.998333333333     0.242366666667     0.750000000000     0          
T        Si     0.999933333333     0.255266666667     0.949200000000     0          
T        Si     0.698800000000     0.223333333333     0.875000000000     0          
O        O      0.884100000000     0.321166666667     0.831575000000     0          
T        Si     0.922000000000     0.000066666667     0.800800000000     0          
O        O      0.770400000000     0.115900000000     0.918425000000     0          
T        Si     0.744733333333     0.078000000000     0.949200000000     0          
O        O      0.678833333333     0.229600000000     0.831575000000     0          
T        Si     0.999933333333     0.255266666667     0.800800000000     0          
O        O      0.698700000000     0.397366666667     0.056100000000     0          
O        O      0.957266666667     0.376066666667     0.065450000000     0          
O        O      0.678833333333     0.449233333333     0.081575000000     0          
O        O      0.998333333333     0.422633333333     0.000000000000     0          
O        O      0.745300000000     0.490600000000     0.125000000000     0          
O        O      0.691866666667     0.512600000000     0.125000000000     0          
T        Si     0.999933333333     0.411333333333     0.050800000000     0          
T        Si     0.698800000000     0.475466666667     0.125000000000     0          
O        O      0.698666666667     0.634633333333     0.193900000000     0          
O        O      0.752133333333     0.376066666667     0.184550000000     0          
O        O      0.770400000000     0.654500000000     0.168425000000     0          
O        O      0.757633333333     0.335000000000     0.000000000000     0          
O        O      0.745300000000     0.588033333333     0.125000000000     0          
O        O      0.820733333333     0.641466666667     0.125000000000     0          
T        Si     0.744733333333     0.333400000000     0.199200000000     0          
T        Si     0.776666666667     0.634533333333     0.125000000000     0          
O        O      0.935966666667     0.634666666667     0.056100000000     0          
O        O      0.957266666667     0.581200000000     0.065450000000     0          
O        O      0.884100000000     0.562933333333     0.081575000000     0          
O        O      0.910700000000     0.575700000000     0.000000000000     0          
O        O      0.842733333333     0.588033333333     0.125000000000     0          
O        O      0.820733333333     0.512600000000     0.125000000000     0          
T        Si     0.922000000000     0.588600000000     0.050800000000     0          
T        Si     0.857866666667     0.556666666667     0.125000000000     0          
O        O      0.698700000000     0.397366666667     0.193900000000     0          
O        O      0.957266666667     0.376066666667     0.184550000000     0          
O        O      0.678833333333     0.449233333333     0.168425000000     0          
T        Si     0.999933333333     0.411333333333     0.199200000000     0          
O        O      0.698666666667     0.634633333333     0.056100000000     0          
O        O      0.752133333333     0.376066666667     0.065450000000     0          
O        O      0.770400000000     0.654500000000     0.081575000000     0          
T        Si     0.744733333333     0.333400000000     0.050800000000     0          
O        O      0.935966666667     0.634666666667     0.193900000000     0          
O        O      0.957266666667     0.581200000000     0.184550000000     0          
O        O      0.884100000000     0.562933333333     0.168425000000     0          
T        Si     0.922000000000     0.588600000000     0.199200000000     0          
O        O      0.884100000000     0.654500000000     0.168425000000     0          
O        O      0.910700000000     0.335000000000     0.000000000000     0          
T        Si     0.922000000000     0.333400000000     0.199200000000     0          
T        Si     0.857866666667     0.634533333333     0.125000000000     0          
O        O      0.770400000000     0.449233333333     0.081575000000     0          
O        O      0.757633333333     0.422633333333     0.000000000000     0          
T        Si     0.744733333333     0.411333333333     0.050800000000     0          
T        Si     0.776666666667     0.475466666667     0.125000000000     0          
O        O      0.678833333333     0.562933333333     0.168425000000     0          
O        O      0.998333333333     0.575700000000     0.000000000000     0          
T        Si     0.999933333333     0.588600000000     0.199200000000     0          
T        Si     0.698800000000     0.556666666667     0.125000000000     0          
O        O      0.884100000000     0.654500000000     0.081575000000     0          
T        Si     0.922000000000     0.333400000000     0.050800000000     0          
O        O      0.770400000000     0.449233333333     0.168425000000     0          
T        Si     0.744733333333     0.411333333333     0.199200000000     0          
O        O      0.678833333333     0.562933333333     0.081575000000     0          
T        Si     0.999933333333     0.588600000000     0.050800000000     0          
O        O      0.698700000000     0.397366666667     0.306100000000     0          
O        O      0.957266666667     0.376066666667     0.315450000000     0          
O        O      0.678833333333     0.449233333333     0.331575000000     0          
O        O      0.998333333333     0.422633333333     0.250000000000     0          
O        O      0.745300000000     0.490600000000     0.375000000000     0          
O        O      0.691866666667     0.512600000000     0.375000000000     0          
T        Si     0.999933333333     0.411333333333     0.300800000000     0          
T        Si     0.698800000000     0.475466666667     0.375000000000     0          
O        O      0.698666666667     0.634633333333     0.443900000000     0          
O        O      0.752133333333     0.376066666667     0.434550000000     0          
O        O      0.770400000000     0.654500000000     0.418425000000     0          
O        O      0.757633333333     0.335000000000     0.250000000000     0          
O        O      0.745300000000     0.588033333333     0.375000000000     0          
O        O      0.820733333333     0.641466666667     0.375000000000     0          
T        Si     0.744733333333     0.333400000000     0.449200000000     0          
T        Si     0.776666666667     0.634533333333     0.375000000000     0          
O        O      0.935966666667     0.634666666667     0.306100000000     0          
O        O      0.957266666667     0.581200000000     0.315450000000     0          
O        O      0.884100000000     0.562933333333     0.331575000000     0          
O        O      0.910700000000     0.575700000000     0.250000000000     0          
O        O      0.842733333333     0.588033333333     0.375000000000     0          
O        O      0.820733333333     0.512600000000     0.375000000000     0          
T        Si     0.922000000000     0.588600000000     0.300800000000     0          
T        Si     0.857866666667     0.556666666667     0.375000000000     0          
O        O      0.698700000000     0.397366666667     0.443900000000     0          
O        O      0.957266666667     0.376066666667     0.434550000000     0          
O        O      0.678833333333     0.449233333333     0.418425000000     0          
T        Si     0.999933333333     0.411333333333     0.449200000000     0          
O        O      0.698666666667     0.634633333333     0.306100000000     0          
O        O      0.752133333333     0.376066666667     0.315450000000     0          
O        O      0.770400000000     0.654500000000     0.331575000000     0          
T        Si     0.744733333333     0.333400000000     0.300800000000     0          
O        O      0.935966666667     0.634666666667     0.443900000000     0          
O        O      0.957266666667     0.581200000000     0.434550000000     0          
O        O      0.884100000000     0.562933333333     0.418425000000     0          
T        Si     0.922000000000     0.588600000000     0.449200000000     0          
O        O      0.884100000000     0.654500000000     0.418425000000     0          
O        O      0.910700000000     0.335000000000     0.250000000000     0          
T        Si     0.922000000000     0.333400000000     0.449200000000     0          
T        Si     0.857866666667     0.634533333333     0.375000000000     0          
O        O      0.770400000000     0.449233333333     0.331575000000     0          
O        O      0.757633333333     0.422633333333     0.250000000000     0          
T        Si     0.744733333333     0.411333333333     0.300800000000     0          
T        Si     0.776666666667     0.475466666667     0.375000000000     0          
O        O      0.678833333333     0.562933333333     0.418425000000     0          
O        O      0.998333333333     0.575700000000     0.250000000000     0          
T        Si     0.999933333333     0.588600000000     0.449200000000     0          
T        Si     0.698800000000     0.556666666667     0.375000000000     0          
O        O      0.884100000000     0.654500000000     0.331575000000     0          
T        Si     0.922000000000     0.333400000000     0.300800000000     0          
O        O      0.770400000000     0.449233333333     0.418425000000     0          
T        Si     0.744733333333     0.411333333333     0.449200000000     0          
O        O      0.678833333333     0.562933333333     0.331575000000     0          
T        Si     0.999933333333     0.588600000000     0.300800000000     0          
O        O      0.698700000000     0.397366666667     0.556100000000     0          
O        O      0.957266666667     0.376066666667     0.565450000000     0          
O        O      0.678833333333     0.449233333333     0.581575000000     0          
O        O      0.998333333333     0.422633333333     0.500000000000     0          
O        O      0.745300000000     0.490600000000     0.625000000000     0          
O        O      0.691866666667     0.512600000000     0.625000000000     0          
T        Si     0.999933333333     0.411333333333     0.550800000000     0          
T        Si     0.698800000000     0.475466666667     0.625000000000     0          
O        O      0.698666666667     0.634633333333     0.693900000000     0          
O        O      0.752133333333     0.376066666667     0.684550000000     0          
O        O      0.770400000000     0.654500000000     0.668425000000     0          
O        O      0.757633333333     0.335000000000     0.500000000000     0          
O        O      0.745300000000     0.588033333333     0.625000000000     0          
O        O      0.820733333333     0.641466666667     0.625000000000     0          
T        Si     0.744733333333     0.333400000000     0.699200000000     0          
T        Si     0.776666666667     0.634533333333     0.625000000000     0          
O        O      0.935966666667     0.634666666667     0.556100000000     0          
O        O      0.957266666667     0.581200000000     0.565450000000     0          
O        O      0.884100000000     0.562933333333     0.581575000000     0          
O        O      0.910700000000     0.575700000000     0.500000000000     0          
O        O      0.842733333333     0.588033333333     0.625000000000     0          
O        O      0.820733333333     0.512600000000     0.625000000000     0          
T        Si     0.922000000000     0.588600000000     0.550800000000     0          
T        Si     0.857866666667     0.556666666667     0.625000000000     0          
O        O      0.698700000000     0.397366666667     0.693900000000     0          
O        O      0.957266666667     0.376066666667     0.684550000000     0          
O        O      0.678833333333     0.449233333333     0.668425000000     0          
T        Si     0.999933333333     0.411333333333     0.699200000000     0          
O        O      0.698666666667     0.634633333333     0.556100000000     0          
O        O      0.752133333333     0.376066666667     0.565450000000     0          
O        O      0.770400000000     0.654500000000     0.581575000000     0          
T        Si     0.744733333333     0.333400000000     0.550800000000     0          
O        O      0.935966666667     0.634666666667     0.693900000000     0          
O        O      0.957266666667     0.581200000000     0.684550000000     0          
O        O      0.884100000000     0.562933333333     0.668425000000     0          
T        Si     0.922000000000     0.588600000000     0.699200000000     0          
O        O      0.884100000000     0.654500000000     0.668425000000     0          
O        O      0.910700000000     0.335000000000     0.500000000000     0          
T        Si     0.922000000000     0.333400000000     0.699200000000     0          
T        Si     0.857866666667     0.634533333333     0.625000000000     0          
O        O      0.770400000000     0.449233333333     0.581575000000     0          
O        O      0.757633333333     0.422633333333     0.500000000000     0          
T        Si     0.744733333333     0.411333333333     0.550800000000     0          
T        Si     0.776666666667     0.475466666667     0.625000000000     0          
O        O      0.678833333333     0.562933333333     0.668425000000     0          
O        O      0.998333333333     0.575700000000     0.500000000000     0          
T        Si     0.999933333333     0.588600000000     0.699200000000     0          
T        Si     0.698800000000     0.556666666667     0.625000000000     0          
O        O      0.884100000000     0.654500000000     0.581575000000     0          
T        Si     0.922000000000     0.333400000000     0.550800000000     0          
O        O      0.770400000000     0.449233333333     0.668425000000     0          
T        Si     0.744733333333     0.411333333333     0.699200000000     0          
O        O      0.678833333333     0.562933333333     0.581575000000     0          
T        Si     0.999933333333     0.588600000000     0.550800000000     0          
O        O      0.698700000000     0.397366666667     0.806100000000     0          
O        O      0.957266666667     0.376066666667     0.815450000000     0          
O        O      0.678833333333     0.449233333333     0.831575000000     0          
O        O      0.998333333333     0.422633333333     0.750000000000     0          
O        O      0.745300000000     0.490600000000     0.875000000000     0          
O        O      0.691866666667     0.512600000000     0.875000000000     0          
T        Si     0.999933333333     0.411333333333     0.800800000000     0          
T        Si     0.698800000000     0.475466666667     0.875000000000     0          
O        O      0.698666666667     0.634633333333     0.943900000000     0          
O        O      0.752133333333     0.376066666667     0.934550000000     0          
O        O      0.770400000000     0.654500000000     0.918425000000     0          
O        O      0.757633333333     0.335000000000     0.750000000000     0          
O        O      0.745300000000     0.588033333333     0.875000000000     0          
O        O      0.820733333333     0.641466666667     0.875000000000     0          
T        Si     0.744733333333     0.333400000000     0.949200000000     0          
T        Si     0.776666666667     0.634533333333     0.875000000000     0          
O        O      0.935966666667     0.634666666667     0.806100000000     0          
O        O      0.957266666667     0.581200000000     0.815450000000     0          
O        O      0.884100000000     0.562933333333     0.831575000000     0          
O        O      0.910700000000     0.575700000000     0.750000000000     0          
O        O      0.842733333333     0.588033333333     0.875000000000     0          
O        O      0.820733333333     0.512600000000     0.875000000000     0          
T        Si     0.922000000000     0.588600000000     0.800800000000     0          
T        Si     0.857866666667     0.556666666667     0.875000000000     0          
O        O      0.698700000000     0.397366666667     0.943900000000     0          
O        O      0.957266666667     0.376066666667     0.934550000000     0          
O        O      0.678833333333     0.449233333333     0.918425000000     0          
T        Si     0.999933333333     0.411333333333     0.949200000000     0          
O        O      0.698666666667     0.634633333333     0.806100000000     0          
O        O      0.752133333333     0.376066666667     0.815450000000     0          
O        O      0.770400000000     0.654500000000     0.831575000000     0          
T        Si     0.744733333333     0.333400000000     0.800800000000     0          
O        O      0.935966666667     0.634666666667     0.943900000000     0          
O        O      0.957266666667     0.581200000000     0.934550000000     0          
O        O      0.884100000000     0.562933333333     0.918425000000     0          
T        Si     0.922000000000     0.588600000000     0.949200000000     0          
O        O      0.884100000000     0.654500000000     0.918425000000     0          
O        O      0.910700000000     0.335000000000     0.750000000000     0          
T        Si     0.922000000000     0.333400000000     0.949200000000     0          
T        Si     0.857866666667     0.634533333333     0.875000000000     0          
O        O      0.770400000000     0.449233333333     0.831575000000     0          
O        O      0.757633333333     0.422633333333     0.750000000000     0          
T        Si     0.744733333333     0.411333333333     0.800800000000     0          
T        Si     0.776666666667     0.475466666667     0.875000000000     0          
O        O      0.678833333333     0.562933333333     0.918425000000     0          
O        O      0.998333333333     0.575700000000     0.750000000000     0          
T        Si     0.999933333333     0.588600000000     0.949200000000     0          
T        Si     0.698800000000     0.556666666667     0.875000000000     0          
O        O      0.884100000000     0.654500000000     0.831575000000     0          
T        Si     0.922000000000     0.333400000000     0.800800000000     0          
O        O      0.770400000000     0.449233333333     0.918425000000     0          
T        Si     0.744733333333     0.411333333333     0.949200000000     0          
O        O      0.678833333333     0.562933333333     0.831575000000     0          
T        Si     0.999933333333     0.588600000000     0.800800000000     0          
O        O      0.698700000000     0.730700000000     0.056100000000     0          
O        O      0.957266666667     0.709400000000     0.065450000000     0          
O        O      0.678833333333     0.782566666667     0.081575000000     0          
O        O      0.998333333333     0.755966666667     0.000000000000     0          
O        O      0.745300000000     0.823933333333     0.125000000000     0          
O        O      0.691866666667     0.845933333333     0.125000000000     0          
T        Si     0.999933333333     0.744666666667     0.050800000000     0          
T        Si     0.698800000000     0.808800000000     0.125000000000     0          
O        O      0.698666666667     0.967966666667     0.193900000000     0          
O        O      0.752133333333     0.709400000000     0.184550000000     0          
O        O      0.770400000000     0.987833333333     0.168425000000     0          
O        O      0.757633333333     0.668333333333     0.000000000000     0          
O        O      0.745300000000     0.921366666667     0.125000000000     0          
O        O      0.820733333333     0.974800000000     0.125000000000     0          
T        Si     0.744733333333     0.666733333333     0.199200000000     0          
T        Si     0.776666666667     0.967866666667     0.125000000000     0          
O        O      0.935966666667     0.968000000000     0.056100000000     0          
O        O      0.957266666667     0.914533333333     0.065450000000     0          
O        O      0.884100000000     0.896266666667     0.081575000000     0          
O        O      0.910700000000     0.909033333333     0.000000000000     0          
O        O      0.842733333333     0.921366666667     0.125000000000     0          
O        O      0.820733333333     0.845933333333     0.125000000000     0          
T        Si     0.922000000000     0.921933333333     0.050800000000     0          
T        Si     0.857866666667     0.890000000000     0.125000000000     0          
O        O      0.698700000000     0.730700000000     0.193900000000     0          
O        O      0.957266666667     0.709400000000     0.184550000000     0          
O        O      0.678833333333     0.782566666667     0.168425000000     0          
T        Si     0.999933333333     0.744666666667     0.199200000000     0          
O        O      0.698666666667     0.967966666667     0.056100000000     0          
O        O      0.752133333333     0.709400000000     0.065450000000     0          
O        O      0.770400000000     0.987833333333     0.081575000000     0          
T        Si     0.744733333333     0.666733333333     0.050800000000     0          
O        O      0.935966666667     0.968000000000     0.193900000000     0          
O        O      0.957266666667     0.914533333333     0.184550000000     0          
O        O      0.884100000000     0.896266666667     0.168425000000     0          
T        Si     0.922000000000     0.921933333333     0.199200000000     0          
O        O      0.884100000000     0.987833333333     0.168425000000     0          
O        O      0.910700000000     0.668333333333     0.000000000000     0          
T        Si     0.922000000000     0.666733333333     0.199200000000     0          
T        Si     0.857866666667     0.967866666667     0.125000000000     0          
O        O      0.770400000000     0.782566666667     0.081575000000     0          
O        O      0.757633333333     0.755966666667     0.000000000000     0          
T        Si     0.744733333333     0.744666666667     0.050800000000     0          
T        Si     0.776666666667     0.808800000000     0.125000000000     0          
O        O      0.678833333333     0.896266666667     0.168425000000     0          
O        O      0.998333333333     0.909033333333     0.000000000000     0          
T        Si     0.999933333333     0.921933333333     0.199200000000     0          
T        Si     0.698800000000     0.890000000000     0.125000000000     0          
O        O      0.884100000000     0.987833333333     0.081575000000     0          
T        Si     0.922000000000     0.666733333333     0.050800000000     0          
O        O      0.770400000000     0.782566666667     0.168425000000     0          
T        Si     0.744733333333     0.744666666667     0.199200000000     0          
O        O      0.678833333333     0.896266666667     0.081575000000     0          
T        Si     0.999933333333     0.921933333333     0.050800000000     0          
O        O      0.698700000000     0.730700000000     0.306100000000     0          
O        O      0.957266666667     0.709400000000     0.315450000000     0          
O        O      0.678833333333     0.782566666667     0.331575000000     0          
O        O      0.998333333333     0.755966666667     0.250000000000     0          
O        O      0.745300000000     0.823933333333     0.375000000000     0          
O        O      0.691866666667     0.845933333333     0.375000000000     0          
T        Si     0.999933333333     0.744666666667     0.300800000000     0          
T        Si     0.698800000000     0.808800000000     0.375000000000     0          
O        O      0.698666666667     0.967966666667     0.443900000000     0          
O        O      0.752133333333     0.709400000000     0.434550000000     0          
O        O      0.770400000000     0.987833333333     0.418425000000     0          
O        O      0.757633333333     0.668333333333     0.250000000000     0          
O        O      0.745300000000     0.921366666667     0.375000000000     0          
O        O      0.820733333333     0.974800000000     0.375000000000     0          
T        Si     0.744733333333     0.666733333333     0.449200000000     0          
T        Si     0.776666666667     0.967866666667     0.375000000000     0          
O        O      0.935966666667     0.968000000000     0.306100000000     0          
O        O      0.957266666667     0.914533333333     0.315450000000     0          
O        O      0.884100000000     0.896266666667     0.331575000000     0          
O        O      0.910700000000     0.909033333333     0.250000000000     0          
O        O      0.842733333333     0.921366666667     0.375000000000     0          
O        O      0.820733333333     0.845933333333     0.375000000000     0          
T        Si     0.922000000000     0.921933333333     0.300800000000     0          
T        Si     0.857866666667     0.890000000000     0.375000000000     0          
O        O      0.698700000000     0.730700000000     0.443900000000     0          
O        O      0.957266666667     0.709400000000     0.434550000000     0          
O        O      0.678833333333     0.782566666667     0.418425000000     0          
T        Si     0.999933333333     0.744666666667     0.449200000000     0          
O        O      0.698666666667     0.967966666667     0.306100000000     0          
O        O      0.752133333333     0.709400000000     0.315450000000     0          
O        O      0.770400000000     0.987833333333     0.331575000000     0          
T        Si     0.744733333333     0.666733333333     0.300800000000     0          
O        O      0.935966666667     0.968000000000     0.443900000000     0          
O        O      0.957266666667     0.914533333333     0.434550000000     0          
O        O      0.884100000000     0.896266666667     0.418425000000     0          
T        Si     0.922000000000     0.921933333333     0.449200000000     0          
O        O      0.884100000000     0.987833333333     0.418425000000     0          
O        O      0.910700000000     0.668333333333     0.250000000000     0          
T        Si     0.922000000000     0.666733333333     0.449200000000     0          
T        Si     0.857866666667     0.967866666667     0.375000000000     0          
O        O      0.770400000000     0.782566666667     0.331575000000     0          
O        O      0.757633333333     0.755966666667     0.250000000000     0          
T        Si     0.744733333333     0.744666666667     0.300800000000     0          
T        Si     0.776666666667     0.808800000000     0.375000000000     0          
O        O      0.678833333333     0.896266666667     0.418425000000     0          
O        O      0.998333333333     0.909033333333     0.250000000000     0          
T        Si     0.999933333333     0.921933333333     0.449200000000     0          
T        Si     0.698800000000     0.890000000000     0.375000000000     0          
O        O      0.884100000000     0.987833333333     0.331575000000     0          
T        Si     0.922000000000     0.666733333333     0.300800000000     0          
O        O      0.770400000000     0.782566666667     0.418425000000     0          
T        Si     0.744733333333     0.744666666667     0.449200000000     0          
O        O      0.678833333333     0.896266666667     0.331575000000     0          
T        Si     0.999933333333     0.921933333333     0.300800000000     0          
O        O      0.698700000000     0.730700000000     0.556100000000     0          
O        O      0.957266666667     0.709400000000     0.565450000000     0          
O        O      0.678833333333     0.782566666667     0.581575000000     0          
O        O      0.998333333333     0.755966666667     0.500000000000     0          
O        O      0.745300000000     0.823933333333     0.625000000000     0          
O        O      0.691866666667     0.845933333333     0.625000000000     0          
T        Si     0.999933333333     0.744666666667     0.550800000000     0          
T        Si     0.698800000000     0.808800000000     0.625000000000     0          
O        O      0.698666666667     0.967966666667     0.693900000000     0          
O        O      0.752133333333     0.709400000000     0.684550000000     0          
O        O      0.770400000000     0.987833333333     0.668425000000     0          
O        O      0.757633333333     0.668333333333     0.500000000000     0          
O        O      0.745300000000     0.921366666667     0.625000000000     0          
O        O      0.820733333333     0.974800000000     0.625000000000     0          
T        Si     0.744733333333     0.666733333333     0.699200000000     0          
T        Si     0.776666666667     0.967866666667     0.625000000000     0          
O        O      0.935966666667     0.968000000000     0.556100000000     0          
O        O      0.957266666667     0.914533333333     0.565450000000     0          
O        O      0.884100000000     0.896266666667     0.581575000000     0          
O        O      0.910700000000     0.909033333333     0.500000000000     0          
O        O      0.842733333333     0.921366666667     0.625000000000     0          
O        O      0.820733333333     0.845933333333     0.625000000000     0          
T        Si     0.922000000000     0.921933333333     0.550800000000     0          
T        Si     0.857866666667     0.890000000000     0.625000000000     0          
O        O      0.698700000000     0.730700000000     0.693900000000     0          
O        O      0.957266666667     0.709400000000     0.684550000000     0          
O        O      0.678833333333     0.782566666667     0.668425000000     0          
T        Si     0.999933333333     0.744666666667     0.699200000000     0          
O        O      0.698666666667     0.967966666667     0.556100000000     0          
O        O      0.752133333333     0.709400000000     0.565450000000     0          
O        O      0.770400000000     0.987833333333     0.581575000000     0          
T        Si     0.744733333333     0.666733333333     0.550800000000     0          
O        O      0.935966666667     0.968000000000     0.693900000000     0          
O        O      0.957266666667     0.914533333333     0.684550000000     0          
O        O      0.884100000000     0.896266666667     0.668425000000     0          
T        Si     0.922000000000     0.921933333333     0.699200000000     0          
O        O      0.884100000000     0.987833333333     0.668425000000     0          
O        O      0.910700000000     0.668333333333     0.500000000000     0          
T        Si     0.922000000000     0.666733333333     0.699200000000     0          
T        Si     0.857866666667     0.967866666667     0.625000000000     0          
O        O      0.770400000000     0.782566666667     0.581575000000     0          
O        O      0.757633333333     0.755966666667     0.500000000000     0          
T        Si     0.744733333333     0.744666666667     0.550800000000     0          
T        Si     0.776666666667     0.808800000000     0.625000000000     0          
O        O      0.678833333333     0.896266666667     0.668425000000     0          
O        O      0.998333333333     0.909033333333     0.500000000000     0          
T        Si     0.999933333333     0.921933333333     0.699200000000     0          
T        Si     0.698800000000     0.890000000000     0.625000000000     0          
O        O      0.884100000000     0.987833333333     0.581575000000     0          
T        Si     0.922000000000     0.666733333333     0.550800000000     0          
O        O      0.770400000000     0.782566666667     0.668425000000     0          
T        Si     0.744733333333     0.744666666667     0.699200000000     0          
O        O      0.678833333333     0.896266666667     0.581575000000     0          
T        Si     0.999933333333     0.921933333333     0.550800000000     0          
O        O      0.698700000000     0.730700000000     0.806100000000     0          
O        O      0.957266666667     0.709400000000     0.815450000000     0          
O        O      0.678833333333     0.782566666667     0.831575000000     0          
O        O      0.998333333333     0.755966666667     0.750000000000     0          
O        O      0.745300000000     0.823933333333     0.875000000000     0          
O        O      0.691866666667     0.845933333333     0.875000000000     0          
T        Si     0.999933333333     0.744666666667     0.800800000000     0          
T        Si     0.698800000000     0.808800000000     0.875000000000     0          
O        O      0.698666666667     0.967966666667     0.943900000000     0          
O        O      0.752133333333     0.709400000000     0.934550000000     0          
O        O      0.770400000000     0.987833333333     0.918425000000     0          
O        O      0.757633333333     0.668333333333     0.750000000000     0          
O        O      0.745300000000     0.921366666667     0.875000000000     0          
O        O      0.820733333333     0.974800000000     0.875000000000     0          
T        Si     0.744733333333     0.666733333333     0.949200000000     0          
T        Si     0.776666666667     0.967866666667     0.875000000000     0          
O        O      0.935966666667     0.968000000000     0.806100000000     0          
O        O      0.957266666667     0.914533333333     0.815450000000     0          
O        O      0.884100000000     0.896266666667     0.831575000000     0          
O        O      0.910700000000     0.909033333333     0.750000000000     0          
O        O      0.842733333333     0.921366666667     0.875000000000     0          
O        O      0.820733333333     0.845933333333     0.875000000000     0          
T        Si     0.922000000000     0.921933333333     0.800800000000     0          
T        Si     0.857866666667     0.890000000000     0.875000000000     0          
O        O      0.698700000000     0.730700000000     0.943900000000     0          
O        O      0.957266666667     0.709400000000     0.934550000000     0          
O        O      0.678833333333     0.782566666667     0.918425000000     0          
T        Si     0.999933333333     0.744666666667     0.949200000000     0          
O        O      0.698666666667     0.967966666667     0.806100000000     0          
O        O      0.752133333333     0.709400000000     0.815450000000     0          
O        O      0.770400000000     0.987833333333     0.831575000000     0          
T        Si     0.744733333333     0.666733333333     0.800800000000     0          
O        O      0.935966666667     0.968000000000     0.943900000000     0          
O        O      0.957266666667     0.914533333333     0.934550000000     0          
O        O      0.884100000000     0.896266666667     0.918425000000     0          
T        Si     0.922000000000     0.921933333333     0.949200000000     0          
O        O      0.884100000000     0.987833333333     0.918425000000     0          
O        O      0.910700000000     0.668333333333     0.750000000000     0          
T        Si     0.922000000000     0.666733333333     0.949200000000     0          
T        Si     0.857866666667     0.967866666667     0.875000000000     0          
O        O      0.770400000000     0.782566666667     0.831575000000     0          
O        O      0.757633333333     0.755966666667     0.750000000000     0          
T        Si     0.744733333333     0.744666666667     0.800800000000     0          
T        Si     0.776666666667     0.808800000000     0.875000000000     0          
O        O      0.678833333333     0.896266666667     0.918425000000     0          
O        O      0.998333333333     0.909033333333     0.750000000000     0          
T        Si     0.999933333333     0.921933333333     0.949200000000     0          
T        Si     0.698800000000     0.890000000000     0.875000000000     0          
O        O      0.884100000000     0.987833333333     0.831575000000     0          
T        Si     0.922000000000     0.666733333333     0.800800000000     0          
O        O      0.770400000000     0.782566666667     0.918425000000     0          
T        Si     0.744733333333     0.744666666667     0.949200000000     0          
O        O      0.678833333333     0.896266666667     0.831575000000     0          
T        Si     0.999933333333     0.921933333333     0.800800000000     0          


