data_zeolite

_audit_creation_method RASPA-1.0
_audit_creation_date 2021-6-7
_audit_author_name ''

_cell_length_a    30.987
_cell_length_b    30.987
_cell_length_c    34.364
_cell_angle_alpha 90
_cell_angle_beta  90
_cell_angle_gamma 90
_cell_volume      32996.1

_symmetry_cell_setting          tetragonal
_symmetry_space_group_name_Hall 'P 1'
_symmetry_space_group_name_H-M  'P 1'
_symmetry_Int_Tables_number     1

_symmetry_equiv_pos_as_xyz 'x,y,z'

loop_
_atom_site_label
_atom_site_type_symbol
_atom_site_fract_x
_atom_site_fract_y
_atom_site_fract_z
_atom_site_charge
O        O      0.055766666667     0.083333333333     0.148600000000     0          
O        O      0.124200000000     0.040866666667     0.125000000000     0          
O        O      0.076933333333     0.083333333333     0.074400000000     0          
O        O      0.000000000000     0.083333333333     0.206500000000     0          
O        O      0.073066666667     0.040866666667     0.212900000000     0          
O        O      0.063966666667     0.292333333333     0.990700000000     0          
O        O      0.000000000000     0.083333333333     0.042400000000     0          
T        Si     0.095333333333     0.083333333333     0.118200000000     0          
T        Si     0.050400000000     0.083333333333     0.195300000000     0          
T        Si     0.094133333333     0.000000000000     0.000000000000     0          
T        Si     0.051033333333     0.083333333333     0.033800000000     0          
O        O      0.000000000000     0.305766666667     0.398600000000     0          
O        O      0.042466666667     0.040866666667     0.375000000000     0          
O        O      0.000000000000     0.326933333333     0.324400000000     0          
O        O      0.000000000000     0.250000000000     0.456500000000     0          
O        O      0.042466666667     0.323066666667     0.462900000000     0          
O        O      0.124333333333     0.313966666667     0.240700000000     0          
O        O      0.000000000000     0.250000000000     0.292400000000     0          
T        Si     0.000000000000     0.012000000000     0.368200000000     0          
T        Si     0.000000000000     0.300400000000     0.445300000000     0          
T        Si     0.083333333333     0.010800000000     0.250000000000     0          
T        Si     0.000000000000     0.301033333333     0.283800000000     0          
O        O      0.110900000000     0.250000000000     0.648600000000     0          
O        O      0.042466666667     0.292466666667     0.625000000000     0          
O        O      0.089733333333     0.250000000000     0.574400000000     0          
O        O      0.166666666667     0.250000000000     0.706500000000     0          
O        O      0.093600000000     0.292466666667     0.712900000000     0          
O        O      0.102700000000     0.041000000000     0.490700000000     0          
O        O      0.166666666667     0.250000000000     0.542400000000     0          
T        Si     0.071333333333     0.250000000000     0.618200000000     0          
T        Si     0.116266666667     0.250000000000     0.695300000000     0          
T        Si     0.072533333333     0.000000000000     0.500000000000     0          
T        Si     0.115633333333     0.250000000000     0.533800000000     0          
O        O      0.166666666667     0.027566666667     0.898600000000     0          
O        O      0.124200000000     0.292466666667     0.875000000000     0          
O        O      0.166666666667     0.006400000000     0.824400000000     0          
O        O      0.166666666667     0.083333333333     0.956500000000     0          
O        O      0.124200000000     0.010266666667     0.962900000000     0          
O        O      0.042333333333     0.019366666667     0.740700000000     0          
O        O      0.166666666667     0.083333333333     0.792400000000     0          
T        Si     0.166666666667     0.321333333333     0.868200000000     0          
T        Si     0.166666666667     0.032933333333     0.945300000000     0          
T        Si     0.083333333333     0.322533333333     0.750000000000     0          
T        Si     0.166666666667     0.032300000000     0.783800000000     0          
O        O      0.055766666667     0.250000000000     0.851400000000     0          
O        O      0.076933333333     0.250000000000     0.925600000000     0          
O        O      0.000000000000     0.250000000000     0.793500000000     0          
O        O      0.073066666667     0.292466666667     0.787100000000     0          
O        O      0.063966666667     0.041000000000     0.009300000000     0          
O        O      0.000000000000     0.250000000000     0.957600000000     0          
T        Si     0.095333333333     0.250000000000     0.881800000000     0          
T        Si     0.050400000000     0.250000000000     0.804700000000     0          
T        Si     0.051033333333     0.250000000000     0.966200000000     0          
O        O      0.166666666667     0.305766666667     0.101400000000     0          
O        O      0.166666666667     0.326933333333     0.175600000000     0          
O        O      0.166666666667     0.250000000000     0.043500000000     0          
O        O      0.124200000000     0.323066666667     0.037100000000     0          
O        O      0.042333333333     0.313966666667     0.259300000000     0          
O        O      0.166666666667     0.250000000000     0.207600000000     0          
T        Si     0.166666666667     0.012000000000     0.131800000000     0          
T        Si     0.166666666667     0.300400000000     0.054700000000     0          
T        Si     0.166666666667     0.301033333333     0.216200000000     0          
O        O      0.110900000000     0.083333333333     0.351400000000     0          
O        O      0.089733333333     0.083333333333     0.425600000000     0          
O        O      0.166666666667     0.083333333333     0.293500000000     0          
O        O      0.093600000000     0.040866666667     0.287100000000     0          
O        O      0.102700000000     0.292333333333     0.509300000000     0          
O        O      0.166666666667     0.083333333333     0.457600000000     0          
T        Si     0.071333333333     0.083333333333     0.381800000000     0          
T        Si     0.116266666667     0.083333333333     0.304700000000     0          
T        Si     0.115633333333     0.083333333333     0.466200000000     0          
O        O      0.000000000000     0.027566666667     0.601400000000     0          
O        O      0.000000000000     0.006400000000     0.675600000000     0          
O        O      0.000000000000     0.083333333333     0.543500000000     0          
O        O      0.042466666667     0.010266666667     0.537100000000     0          
O        O      0.124333333333     0.019366666667     0.759300000000     0          
O        O      0.000000000000     0.083333333333     0.707600000000     0          
T        Si     0.000000000000     0.321333333333     0.631800000000     0          
T        Si     0.000000000000     0.032933333333     0.554700000000     0          
T        Si     0.000000000000     0.032300000000     0.716200000000     0          
O        O      0.277566666667     0.250000000000     0.851400000000     0          
O        O      0.209133333333     0.292466666667     0.875000000000     0          
O        O      0.256400000000     0.250000000000     0.925600000000     0          
O        O      0.260266666667     0.292466666667     0.787100000000     0          
O        O      0.269366666667     0.041000000000     0.009300000000     0          
T        Si     0.238000000000     0.250000000000     0.881800000000     0          
T        Si     0.282933333333     0.250000000000     0.804700000000     0          
T        Si     0.239200000000     0.000000000000     0.000000000000     0          
T        Si     0.282300000000     0.250000000000     0.966200000000     0          
O        O      0.290866666667     0.292466666667     0.625000000000     0          
O        O      0.290866666667     0.010266666667     0.537100000000     0          
O        O      0.209000000000     0.019366666667     0.759300000000     0          
T        Si     0.250000000000     0.322533333333     0.750000000000     0          
O        O      0.222433333333     0.083333333333     0.351400000000     0          
O        O      0.290866666667     0.040866666667     0.375000000000     0          
O        O      0.243600000000     0.083333333333     0.425600000000     0          
O        O      0.239733333333     0.040866666667     0.287100000000     0          
O        O      0.230633333333     0.292333333333     0.509300000000     0          
T        Si     0.262000000000     0.083333333333     0.381800000000     0          
T        Si     0.217066666667     0.083333333333     0.304700000000     0          
T        Si     0.260800000000     0.000000000000     0.500000000000     0          
T        Si     0.217700000000     0.083333333333     0.466200000000     0          
O        O      0.209133333333     0.040866666667     0.125000000000     0          
O        O      0.209133333333     0.323066666667     0.037100000000     0          
O        O      0.291000000000     0.313966666667     0.259300000000     0          
T        Si     0.250000000000     0.010800000000     0.250000000000     0          
O        O      0.277566666667     0.083333333333     0.148600000000     0          
O        O      0.256400000000     0.083333333333     0.074400000000     0          
O        O      0.260266666667     0.040866666667     0.212900000000     0          
O        O      0.269366666667     0.292333333333     0.990700000000     0          
T        Si     0.238000000000     0.083333333333     0.118200000000     0          
T        Si     0.282933333333     0.083333333333     0.195300000000     0          
T        Si     0.282300000000     0.083333333333     0.033800000000     0          
O        O      0.209133333333     0.010266666667     0.962900000000     0          
O        O      0.291000000000     0.019366666667     0.740700000000     0          
O        O      0.222433333333     0.250000000000     0.648600000000     0          
O        O      0.243600000000     0.250000000000     0.574400000000     0          
O        O      0.239733333333     0.292466666667     0.712900000000     0          
O        O      0.230633333333     0.041000000000     0.490700000000     0          
T        Si     0.262000000000     0.250000000000     0.618200000000     0          
T        Si     0.217066666667     0.250000000000     0.695300000000     0          
T        Si     0.217700000000     0.250000000000     0.533800000000     0          
O        O      0.290866666667     0.323066666667     0.462900000000     0          
O        O      0.209000000000     0.313966666667     0.240700000000     0          
O        O      0.290866666667     0.207533333333     0.625000000000     0          
O        O      0.239733333333     0.207533333333     0.712900000000     0          
O        O      0.230633333333     0.125666666667     0.490700000000     0          
T        Si     0.260800000000     0.166666666667     0.500000000000     0          
O        O      0.166666666667     0.139100000000     0.898600000000     0          
O        O      0.209133333333     0.207533333333     0.875000000000     0          
O        O      0.166666666667     0.160266666667     0.824400000000     0          
O        O      0.209133333333     0.156400000000     0.962900000000     0          
O        O      0.291000000000     0.147300000000     0.740700000000     0          
T        Si     0.166666666667     0.178666666667     0.868200000000     0          
T        Si     0.166666666667     0.133733333333     0.945300000000     0          
T        Si     0.250000000000     0.177466666667     0.750000000000     0          
T        Si     0.166666666667     0.134366666667     0.783800000000     0          
O        O      0.209133333333     0.125800000000     0.125000000000     0          
O        O      0.260266666667     0.125800000000     0.212900000000     0          
O        O      0.269366666667     0.207666666667     0.990700000000     0          
T        Si     0.239200000000     0.166666666667     0.000000000000     0          
O        O      0.000000000000     0.194233333333     0.398600000000     0          
O        O      0.290866666667     0.125800000000     0.375000000000     0          
O        O      0.000000000000     0.173066666667     0.324400000000     0          
O        O      0.290866666667     0.176933333333     0.462900000000     0          
O        O      0.209000000000     0.186033333333     0.240700000000     0          
T        Si     0.000000000000     0.154666666667     0.368200000000     0          
T        Si     0.000000000000     0.199600000000     0.445300000000     0          
T        Si     0.250000000000     0.155866666667     0.250000000000     0          
T        Si     0.000000000000     0.198966666667     0.283800000000     0          
O        O      0.239733333333     0.125800000000     0.287100000000     0          
O        O      0.230633333333     0.207666666667     0.509300000000     0          
O        O      0.000000000000     0.139100000000     0.601400000000     0          
O        O      0.000000000000     0.160266666667     0.675600000000     0          
O        O      0.290866666667     0.156400000000     0.537100000000     0          
O        O      0.209000000000     0.147300000000     0.759300000000     0          
T        Si     0.000000000000     0.178666666667     0.631800000000     0          
T        Si     0.000000000000     0.133733333333     0.554700000000     0          
T        Si     0.000000000000     0.134366666667     0.716200000000     0          
O        O      0.260266666667     0.207533333333     0.787100000000     0          
O        O      0.269366666667     0.125666666667     0.009300000000     0          
O        O      0.166666666667     0.194233333333     0.101400000000     0          
O        O      0.166666666667     0.173066666667     0.175600000000     0          
O        O      0.209133333333     0.176933333333     0.037100000000     0          
O        O      0.291000000000     0.186033333333     0.259300000000     0          
T        Si     0.166666666667     0.154666666667     0.131800000000     0          
T        Si     0.166666666667     0.199600000000     0.054700000000     0          
T        Si     0.166666666667     0.198966666667     0.216200000000     0          
O        O      0.042466666667     0.125800000000     0.375000000000     0          
O        O      0.093600000000     0.125800000000     0.287100000000     0          
O        O      0.102700000000     0.207666666667     0.509300000000     0          
T        Si     0.072533333333     0.166666666667     0.500000000000     0          
O        O      0.124200000000     0.125800000000     0.125000000000     0          
O        O      0.124200000000     0.176933333333     0.037100000000     0          
O        O      0.042333333333     0.186033333333     0.259300000000     0          
T        Si     0.083333333333     0.155866666667     0.250000000000     0          
O        O      0.124200000000     0.207533333333     0.875000000000     0          
O        O      0.073066666667     0.207533333333     0.787100000000     0          
O        O      0.063966666667     0.125666666667     0.009300000000     0          
T        Si     0.094133333333     0.166666666667     0.000000000000     0          
O        O      0.042466666667     0.207533333333     0.625000000000     0          
O        O      0.042466666667     0.156400000000     0.537100000000     0          
O        O      0.124333333333     0.147300000000     0.759300000000     0          
T        Si     0.083333333333     0.177466666667     0.750000000000     0          
O        O      0.093600000000     0.207533333333     0.712900000000     0          
O        O      0.102700000000     0.125666666667     0.490700000000     0          
O        O      0.042466666667     0.176933333333     0.462900000000     0          
O        O      0.124333333333     0.186033333333     0.240700000000     0          
O        O      0.073066666667     0.125800000000     0.212900000000     0          
O        O      0.063966666667     0.207666666667     0.990700000000     0          
O        O      0.124200000000     0.156400000000     0.962900000000     0          
O        O      0.042333333333     0.147300000000     0.740700000000     0          
O        O      0.055766666667     0.416666666667     0.148600000000     0          
O        O      0.124200000000     0.374200000000     0.125000000000     0          
O        O      0.076933333333     0.416666666667     0.074400000000     0          
O        O      0.000000000000     0.416666666667     0.206500000000     0          
O        O      0.073066666667     0.374200000000     0.212900000000     0          
O        O      0.063966666667     0.625666666667     0.990700000000     0          
O        O      0.000000000000     0.416666666667     0.042400000000     0          
T        Si     0.095333333333     0.416666666667     0.118200000000     0          
T        Si     0.050400000000     0.416666666667     0.195300000000     0          
T        Si     0.094133333333     0.333333333333     0.000000000000     0          
T        Si     0.051033333333     0.416666666667     0.033800000000     0          
O        O      0.000000000000     0.639100000000     0.398600000000     0          
O        O      0.042466666667     0.374200000000     0.375000000000     0          
O        O      0.000000000000     0.660266666667     0.324400000000     0          
O        O      0.000000000000     0.583333333333     0.456500000000     0          
O        O      0.042466666667     0.656400000000     0.462900000000     0          
O        O      0.124333333333     0.647300000000     0.240700000000     0          
O        O      0.000000000000     0.583333333333     0.292400000000     0          
T        Si     0.000000000000     0.345333333333     0.368200000000     0          
T        Si     0.000000000000     0.633733333333     0.445300000000     0          
T        Si     0.083333333333     0.344133333333     0.250000000000     0          
T        Si     0.000000000000     0.634366666667     0.283800000000     0          
O        O      0.110900000000     0.583333333333     0.648600000000     0          
O        O      0.042466666667     0.625800000000     0.625000000000     0          
O        O      0.089733333333     0.583333333333     0.574400000000     0          
O        O      0.166666666667     0.583333333333     0.706500000000     0          
O        O      0.093600000000     0.625800000000     0.712900000000     0          
O        O      0.102700000000     0.374333333333     0.490700000000     0          
O        O      0.166666666667     0.583333333333     0.542400000000     0          
T        Si     0.071333333333     0.583333333333     0.618200000000     0          
T        Si     0.116266666667     0.583333333333     0.695300000000     0          
T        Si     0.072533333333     0.333333333333     0.500000000000     0          
T        Si     0.115633333333     0.583333333333     0.533800000000     0          
O        O      0.166666666667     0.360900000000     0.898600000000     0          
O        O      0.124200000000     0.625800000000     0.875000000000     0          
O        O      0.166666666667     0.339733333333     0.824400000000     0          
O        O      0.166666666667     0.416666666667     0.956500000000     0          
O        O      0.124200000000     0.343600000000     0.962900000000     0          
O        O      0.042333333333     0.352700000000     0.740700000000     0          
O        O      0.166666666667     0.416666666667     0.792400000000     0          
T        Si     0.166666666667     0.654666666667     0.868200000000     0          
T        Si     0.166666666667     0.366266666667     0.945300000000     0          
T        Si     0.083333333333     0.655866666667     0.750000000000     0          
T        Si     0.166666666667     0.365633333333     0.783800000000     0          
O        O      0.055766666667     0.583333333333     0.851400000000     0          
O        O      0.076933333333     0.583333333333     0.925600000000     0          
O        O      0.000000000000     0.583333333333     0.793500000000     0          
O        O      0.073066666667     0.625800000000     0.787100000000     0          
O        O      0.063966666667     0.374333333333     0.009300000000     0          
O        O      0.000000000000     0.583333333333     0.957600000000     0          
T        Si     0.095333333333     0.583333333333     0.881800000000     0          
T        Si     0.050400000000     0.583333333333     0.804700000000     0          
T        Si     0.051033333333     0.583333333333     0.966200000000     0          
O        O      0.166666666667     0.639100000000     0.101400000000     0          
O        O      0.166666666667     0.660266666667     0.175600000000     0          
O        O      0.166666666667     0.583333333333     0.043500000000     0          
O        O      0.124200000000     0.656400000000     0.037100000000     0          
O        O      0.042333333333     0.647300000000     0.259300000000     0          
O        O      0.166666666667     0.583333333333     0.207600000000     0          
T        Si     0.166666666667     0.345333333333     0.131800000000     0          
T        Si     0.166666666667     0.633733333333     0.054700000000     0          
T        Si     0.166666666667     0.634366666667     0.216200000000     0          
O        O      0.110900000000     0.416666666667     0.351400000000     0          
O        O      0.089733333333     0.416666666667     0.425600000000     0          
O        O      0.166666666667     0.416666666667     0.293500000000     0          
O        O      0.093600000000     0.374200000000     0.287100000000     0          
O        O      0.102700000000     0.625666666667     0.509300000000     0          
O        O      0.166666666667     0.416666666667     0.457600000000     0          
T        Si     0.071333333333     0.416666666667     0.381800000000     0          
T        Si     0.116266666667     0.416666666667     0.304700000000     0          
T        Si     0.115633333333     0.416666666667     0.466200000000     0          
O        O      0.000000000000     0.360900000000     0.601400000000     0          
O        O      0.000000000000     0.339733333333     0.675600000000     0          
O        O      0.000000000000     0.416666666667     0.543500000000     0          
O        O      0.042466666667     0.343600000000     0.537100000000     0          
O        O      0.124333333333     0.352700000000     0.759300000000     0          
O        O      0.000000000000     0.416666666667     0.707600000000     0          
T        Si     0.000000000000     0.654666666667     0.631800000000     0          
T        Si     0.000000000000     0.366266666667     0.554700000000     0          
T        Si     0.000000000000     0.365633333333     0.716200000000     0          
O        O      0.277566666667     0.583333333333     0.851400000000     0          
O        O      0.209133333333     0.625800000000     0.875000000000     0          
O        O      0.256400000000     0.583333333333     0.925600000000     0          
O        O      0.260266666667     0.625800000000     0.787100000000     0          
O        O      0.269366666667     0.374333333333     0.009300000000     0          
T        Si     0.238000000000     0.583333333333     0.881800000000     0          
T        Si     0.282933333333     0.583333333333     0.804700000000     0          
T        Si     0.239200000000     0.333333333333     0.000000000000     0          
T        Si     0.282300000000     0.583333333333     0.966200000000     0          
O        O      0.290866666667     0.625800000000     0.625000000000     0          
O        O      0.290866666667     0.343600000000     0.537100000000     0          
O        O      0.209000000000     0.352700000000     0.759300000000     0          
T        Si     0.250000000000     0.655866666667     0.750000000000     0          
O        O      0.222433333333     0.416666666667     0.351400000000     0          
O        O      0.290866666667     0.374200000000     0.375000000000     0          
O        O      0.243600000000     0.416666666667     0.425600000000     0          
O        O      0.239733333333     0.374200000000     0.287100000000     0          
O        O      0.230633333333     0.625666666667     0.509300000000     0          
T        Si     0.262000000000     0.416666666667     0.381800000000     0          
T        Si     0.217066666667     0.416666666667     0.304700000000     0          
T        Si     0.260800000000     0.333333333333     0.500000000000     0          
T        Si     0.217700000000     0.416666666667     0.466200000000     0          
O        O      0.209133333333     0.374200000000     0.125000000000     0          
O        O      0.209133333333     0.656400000000     0.037100000000     0          
O        O      0.291000000000     0.647300000000     0.259300000000     0          
T        Si     0.250000000000     0.344133333333     0.250000000000     0          
O        O      0.277566666667     0.416666666667     0.148600000000     0          
O        O      0.256400000000     0.416666666667     0.074400000000     0          
O        O      0.260266666667     0.374200000000     0.212900000000     0          
O        O      0.269366666667     0.625666666667     0.990700000000     0          
T        Si     0.238000000000     0.416666666667     0.118200000000     0          
T        Si     0.282933333333     0.416666666667     0.195300000000     0          
T        Si     0.282300000000     0.416666666667     0.033800000000     0          
O        O      0.209133333333     0.343600000000     0.962900000000     0          
O        O      0.291000000000     0.352700000000     0.740700000000     0          
O        O      0.222433333333     0.583333333333     0.648600000000     0          
O        O      0.243600000000     0.583333333333     0.574400000000     0          
O        O      0.239733333333     0.625800000000     0.712900000000     0          
O        O      0.230633333333     0.374333333333     0.490700000000     0          
T        Si     0.262000000000     0.583333333333     0.618200000000     0          
T        Si     0.217066666667     0.583333333333     0.695300000000     0          
T        Si     0.217700000000     0.583333333333     0.533800000000     0          
O        O      0.290866666667     0.656400000000     0.462900000000     0          
O        O      0.209000000000     0.647300000000     0.240700000000     0          
O        O      0.290866666667     0.540866666667     0.625000000000     0          
O        O      0.239733333333     0.540866666667     0.712900000000     0          
O        O      0.230633333333     0.459000000000     0.490700000000     0          
T        Si     0.260800000000     0.500000000000     0.500000000000     0          
O        O      0.166666666667     0.472433333333     0.898600000000     0          
O        O      0.209133333333     0.540866666667     0.875000000000     0          
O        O      0.166666666667     0.493600000000     0.824400000000     0          
O        O      0.209133333333     0.489733333333     0.962900000000     0          
O        O      0.291000000000     0.480633333333     0.740700000000     0          
T        Si     0.166666666667     0.512000000000     0.868200000000     0          
T        Si     0.166666666667     0.467066666667     0.945300000000     0          
T        Si     0.250000000000     0.510800000000     0.750000000000     0          
T        Si     0.166666666667     0.467700000000     0.783800000000     0          
O        O      0.209133333333     0.459133333333     0.125000000000     0          
O        O      0.260266666667     0.459133333333     0.212900000000     0          
O        O      0.269366666667     0.541000000000     0.990700000000     0          
T        Si     0.239200000000     0.500000000000     0.000000000000     0          
O        O      0.000000000000     0.527566666667     0.398600000000     0          
O        O      0.290866666667     0.459133333333     0.375000000000     0          
O        O      0.000000000000     0.506400000000     0.324400000000     0          
O        O      0.290866666667     0.510266666667     0.462900000000     0          
O        O      0.209000000000     0.519366666667     0.240700000000     0          
T        Si     0.000000000000     0.488000000000     0.368200000000     0          
T        Si     0.000000000000     0.532933333333     0.445300000000     0          
T        Si     0.250000000000     0.489200000000     0.250000000000     0          
T        Si     0.000000000000     0.532300000000     0.283800000000     0          
O        O      0.239733333333     0.459133333333     0.287100000000     0          
O        O      0.230633333333     0.541000000000     0.509300000000     0          
O        O      0.000000000000     0.472433333333     0.601400000000     0          
O        O      0.000000000000     0.493600000000     0.675600000000     0          
O        O      0.290866666667     0.489733333333     0.537100000000     0          
O        O      0.209000000000     0.480633333333     0.759300000000     0          
T        Si     0.000000000000     0.512000000000     0.631800000000     0          
T        Si     0.000000000000     0.467066666667     0.554700000000     0          
T        Si     0.000000000000     0.467700000000     0.716200000000     0          
O        O      0.260266666667     0.540866666667     0.787100000000     0          
O        O      0.269366666667     0.459000000000     0.009300000000     0          
O        O      0.166666666667     0.527566666667     0.101400000000     0          
O        O      0.166666666667     0.506400000000     0.175600000000     0          
O        O      0.209133333333     0.510266666667     0.037100000000     0          
O        O      0.291000000000     0.519366666667     0.259300000000     0          
T        Si     0.166666666667     0.488000000000     0.131800000000     0          
T        Si     0.166666666667     0.532933333333     0.054700000000     0          
T        Si     0.166666666667     0.532300000000     0.216200000000     0          
O        O      0.042466666667     0.459133333333     0.375000000000     0          
O        O      0.093600000000     0.459133333333     0.287100000000     0          
O        O      0.102700000000     0.541000000000     0.509300000000     0          
T        Si     0.072533333333     0.500000000000     0.500000000000     0          
O        O      0.124200000000     0.459133333333     0.125000000000     0          
O        O      0.124200000000     0.510266666667     0.037100000000     0          
O        O      0.042333333333     0.519366666667     0.259300000000     0          
T        Si     0.083333333333     0.489200000000     0.250000000000     0          
O        O      0.124200000000     0.540866666667     0.875000000000     0          
O        O      0.073066666667     0.540866666667     0.787100000000     0          
O        O      0.063966666667     0.459000000000     0.009300000000     0          
T        Si     0.094133333333     0.500000000000     0.000000000000     0          
O        O      0.042466666667     0.540866666667     0.625000000000     0          
O        O      0.042466666667     0.489733333333     0.537100000000     0          
O        O      0.124333333333     0.480633333333     0.759300000000     0          
T        Si     0.083333333333     0.510800000000     0.750000000000     0          
O        O      0.093600000000     0.540866666667     0.712900000000     0          
O        O      0.102700000000     0.459000000000     0.490700000000     0          
O        O      0.042466666667     0.510266666667     0.462900000000     0          
O        O      0.124333333333     0.519366666667     0.240700000000     0          
O        O      0.073066666667     0.459133333333     0.212900000000     0          
O        O      0.063966666667     0.541000000000     0.990700000000     0          
O        O      0.124200000000     0.489733333333     0.962900000000     0          
O        O      0.042333333333     0.480633333333     0.740700000000     0          
O        O      0.055766666667     0.750000000000     0.148600000000     0          
O        O      0.124200000000     0.707533333333     0.125000000000     0          
O        O      0.076933333333     0.750000000000     0.074400000000     0          
O        O      0.000000000000     0.750000000000     0.206500000000     0          
O        O      0.073066666667     0.707533333333     0.212900000000     0          
O        O      0.063966666667     0.959000000000     0.990700000000     0          
O        O      0.000000000000     0.750000000000     0.042400000000     0          
T        Si     0.095333333333     0.750000000000     0.118200000000     0          
T        Si     0.050400000000     0.750000000000     0.195300000000     0          
T        Si     0.094133333333     0.666666666667     0.000000000000     0          
T        Si     0.051033333333     0.750000000000     0.033800000000     0          
O        O      0.000000000000     0.972433333333     0.398600000000     0          
O        O      0.042466666667     0.707533333333     0.375000000000     0          
O        O      0.000000000000     0.993600000000     0.324400000000     0          
O        O      0.000000000000     0.916666666667     0.456500000000     0          
O        O      0.042466666667     0.989733333333     0.462900000000     0          
O        O      0.124333333333     0.980633333333     0.240700000000     0          
O        O      0.000000000000     0.916666666667     0.292400000000     0          
T        Si     0.000000000000     0.678666666667     0.368200000000     0          
T        Si     0.000000000000     0.967066666667     0.445300000000     0          
T        Si     0.083333333333     0.677466666667     0.250000000000     0          
T        Si     0.000000000000     0.967700000000     0.283800000000     0          
O        O      0.110900000000     0.916666666667     0.648600000000     0          
O        O      0.042466666667     0.959133333333     0.625000000000     0          
O        O      0.089733333333     0.916666666667     0.574400000000     0          
O        O      0.166666666667     0.916666666667     0.706500000000     0          
O        O      0.093600000000     0.959133333333     0.712900000000     0          
O        O      0.102700000000     0.707666666667     0.490700000000     0          
O        O      0.166666666667     0.916666666667     0.542400000000     0          
T        Si     0.071333333333     0.916666666667     0.618200000000     0          
T        Si     0.116266666667     0.916666666667     0.695300000000     0          
T        Si     0.072533333333     0.666666666667     0.500000000000     0          
T        Si     0.115633333333     0.916666666667     0.533800000000     0          
O        O      0.166666666667     0.694233333333     0.898600000000     0          
O        O      0.124200000000     0.959133333333     0.875000000000     0          
O        O      0.166666666667     0.673066666667     0.824400000000     0          
O        O      0.166666666667     0.750000000000     0.956500000000     0          
O        O      0.124200000000     0.676933333333     0.962900000000     0          
O        O      0.042333333333     0.686033333333     0.740700000000     0          
O        O      0.166666666667     0.750000000000     0.792400000000     0          
T        Si     0.166666666667     0.988000000000     0.868200000000     0          
T        Si     0.166666666667     0.699600000000     0.945300000000     0          
T        Si     0.083333333333     0.989200000000     0.750000000000     0          
T        Si     0.166666666667     0.698966666667     0.783800000000     0          
O        O      0.055766666667     0.916666666667     0.851400000000     0          
O        O      0.076933333333     0.916666666667     0.925600000000     0          
O        O      0.000000000000     0.916666666667     0.793500000000     0          
O        O      0.073066666667     0.959133333333     0.787100000000     0          
O        O      0.063966666667     0.707666666667     0.009300000000     0          
O        O      0.000000000000     0.916666666667     0.957600000000     0          
T        Si     0.095333333333     0.916666666667     0.881800000000     0          
T        Si     0.050400000000     0.916666666667     0.804700000000     0          
T        Si     0.051033333333     0.916666666667     0.966200000000     0          
O        O      0.166666666667     0.972433333333     0.101400000000     0          
O        O      0.166666666667     0.993600000000     0.175600000000     0          
O        O      0.166666666667     0.916666666667     0.043500000000     0          
O        O      0.124200000000     0.989733333333     0.037100000000     0          
O        O      0.042333333333     0.980633333333     0.259300000000     0          
O        O      0.166666666667     0.916666666667     0.207600000000     0          
T        Si     0.166666666667     0.678666666667     0.131800000000     0          
T        Si     0.166666666667     0.967066666667     0.054700000000     0          
T        Si     0.166666666667     0.967700000000     0.216200000000     0          
O        O      0.110900000000     0.750000000000     0.351400000000     0          
O        O      0.089733333333     0.750000000000     0.425600000000     0          
O        O      0.166666666667     0.750000000000     0.293500000000     0          
O        O      0.093600000000     0.707533333333     0.287100000000     0          
O        O      0.102700000000     0.959000000000     0.509300000000     0          
O        O      0.166666666667     0.750000000000     0.457600000000     0          
T        Si     0.071333333333     0.750000000000     0.381800000000     0          
T        Si     0.116266666667     0.750000000000     0.304700000000     0          
T        Si     0.115633333333     0.750000000000     0.466200000000     0          
O        O      0.000000000000     0.694233333333     0.601400000000     0          
O        O      0.000000000000     0.673066666667     0.675600000000     0          
O        O      0.000000000000     0.750000000000     0.543500000000     0          
O        O      0.042466666667     0.676933333333     0.537100000000     0          
O        O      0.124333333333     0.686033333333     0.759300000000     0          
O        O      0.000000000000     0.750000000000     0.707600000000     0          
T        Si     0.000000000000     0.988000000000     0.631800000000     0          
T        Si     0.000000000000     0.699600000000     0.554700000000     0          
T        Si     0.000000000000     0.698966666667     0.716200000000     0          
O        O      0.277566666667     0.916666666667     0.851400000000     0          
O        O      0.209133333333     0.959133333333     0.875000000000     0          
O        O      0.256400000000     0.916666666667     0.925600000000     0          
O        O      0.260266666667     0.959133333333     0.787100000000     0          
O        O      0.269366666667     0.707666666667     0.009300000000     0          
T        Si     0.238000000000     0.916666666667     0.881800000000     0          
T        Si     0.282933333333     0.916666666667     0.804700000000     0          
T        Si     0.239200000000     0.666666666667     0.000000000000     0          
T        Si     0.282300000000     0.916666666667     0.966200000000     0          
O        O      0.290866666667     0.959133333333     0.625000000000     0          
O        O      0.290866666667     0.676933333333     0.537100000000     0          
O        O      0.209000000000     0.686033333333     0.759300000000     0          
T        Si     0.250000000000     0.989200000000     0.750000000000     0          
O        O      0.222433333333     0.750000000000     0.351400000000     0          
O        O      0.290866666667     0.707533333333     0.375000000000     0          
O        O      0.243600000000     0.750000000000     0.425600000000     0          
O        O      0.239733333333     0.707533333333     0.287100000000     0          
O        O      0.230633333333     0.959000000000     0.509300000000     0          
T        Si     0.262000000000     0.750000000000     0.381800000000     0          
T        Si     0.217066666667     0.750000000000     0.304700000000     0          
T        Si     0.260800000000     0.666666666667     0.500000000000     0          
T        Si     0.217700000000     0.750000000000     0.466200000000     0          
O        O      0.209133333333     0.707533333333     0.125000000000     0          
O        O      0.209133333333     0.989733333333     0.037100000000     0          
O        O      0.291000000000     0.980633333333     0.259300000000     0          
T        Si     0.250000000000     0.677466666667     0.250000000000     0          
O        O      0.277566666667     0.750000000000     0.148600000000     0          
O        O      0.256400000000     0.750000000000     0.074400000000     0          
O        O      0.260266666667     0.707533333333     0.212900000000     0          
O        O      0.269366666667     0.959000000000     0.990700000000     0          
T        Si     0.238000000000     0.750000000000     0.118200000000     0          
T        Si     0.282933333333     0.750000000000     0.195300000000     0          
T        Si     0.282300000000     0.750000000000     0.033800000000     0          
O        O      0.209133333333     0.676933333333     0.962900000000     0          
O        O      0.291000000000     0.686033333333     0.740700000000     0          
O        O      0.222433333333     0.916666666667     0.648600000000     0          
O        O      0.243600000000     0.916666666667     0.574400000000     0          
O        O      0.239733333333     0.959133333333     0.712900000000     0          
O        O      0.230633333333     0.707666666667     0.490700000000     0          
T        Si     0.262000000000     0.916666666667     0.618200000000     0          
T        Si     0.217066666667     0.916666666667     0.695300000000     0          
T        Si     0.217700000000     0.916666666667     0.533800000000     0          
O        O      0.290866666667     0.989733333333     0.462900000000     0          
O        O      0.209000000000     0.980633333333     0.240700000000     0          
O        O      0.290866666667     0.874200000000     0.625000000000     0          
O        O      0.239733333333     0.874200000000     0.712900000000     0          
O        O      0.230633333333     0.792333333333     0.490700000000     0          
T        Si     0.260800000000     0.833333333333     0.500000000000     0          
O        O      0.166666666667     0.805766666667     0.898600000000     0          
O        O      0.209133333333     0.874200000000     0.875000000000     0          
O        O      0.166666666667     0.826933333333     0.824400000000     0          
O        O      0.209133333333     0.823066666667     0.962900000000     0          
O        O      0.291000000000     0.813966666667     0.740700000000     0          
T        Si     0.166666666667     0.845333333333     0.868200000000     0          
T        Si     0.166666666667     0.800400000000     0.945300000000     0          
T        Si     0.250000000000     0.844133333333     0.750000000000     0          
T        Si     0.166666666667     0.801033333333     0.783800000000     0          
O        O      0.209133333333     0.792466666667     0.125000000000     0          
O        O      0.260266666667     0.792466666667     0.212900000000     0          
O        O      0.269366666667     0.874333333333     0.990700000000     0          
T        Si     0.239200000000     0.833333333333     0.000000000000     0          
O        O      0.000000000000     0.860900000000     0.398600000000     0          
O        O      0.290866666667     0.792466666667     0.375000000000     0          
O        O      0.000000000000     0.839733333333     0.324400000000     0          
O        O      0.290866666667     0.843600000000     0.462900000000     0          
O        O      0.209000000000     0.852700000000     0.240700000000     0          
T        Si     0.000000000000     0.821333333333     0.368200000000     0          
T        Si     0.000000000000     0.866266666667     0.445300000000     0          
T        Si     0.250000000000     0.822533333333     0.250000000000     0          
T        Si     0.000000000000     0.865633333333     0.283800000000     0          
O        O      0.239733333333     0.792466666667     0.287100000000     0          
O        O      0.230633333333     0.874333333333     0.509300000000     0          
O        O      0.000000000000     0.805766666667     0.601400000000     0          
O        O      0.000000000000     0.826933333333     0.675600000000     0          
O        O      0.290866666667     0.823066666667     0.537100000000     0          
O        O      0.209000000000     0.813966666667     0.759300000000     0          
T        Si     0.000000000000     0.845333333333     0.631800000000     0          
T        Si     0.000000000000     0.800400000000     0.554700000000     0          
T        Si     0.000000000000     0.801033333333     0.716200000000     0          
O        O      0.260266666667     0.874200000000     0.787100000000     0          
O        O      0.269366666667     0.792333333333     0.009300000000     0          
O        O      0.166666666667     0.860900000000     0.101400000000     0          
O        O      0.166666666667     0.839733333333     0.175600000000     0          
O        O      0.209133333333     0.843600000000     0.037100000000     0          
O        O      0.291000000000     0.852700000000     0.259300000000     0          
T        Si     0.166666666667     0.821333333333     0.131800000000     0          
T        Si     0.166666666667     0.866266666667     0.054700000000     0          
T        Si     0.166666666667     0.865633333333     0.216200000000     0          
O        O      0.042466666667     0.792466666667     0.375000000000     0          
O        O      0.093600000000     0.792466666667     0.287100000000     0          
O        O      0.102700000000     0.874333333333     0.509300000000     0          
T        Si     0.072533333333     0.833333333333     0.500000000000     0          
O        O      0.124200000000     0.792466666667     0.125000000000     0          
O        O      0.124200000000     0.843600000000     0.037100000000     0          
O        O      0.042333333333     0.852700000000     0.259300000000     0          
T        Si     0.083333333333     0.822533333333     0.250000000000     0          
O        O      0.124200000000     0.874200000000     0.875000000000     0          
O        O      0.073066666667     0.874200000000     0.787100000000     0          
O        O      0.063966666667     0.792333333333     0.009300000000     0          
T        Si     0.094133333333     0.833333333333     0.000000000000     0          
O        O      0.042466666667     0.874200000000     0.625000000000     0          
O        O      0.042466666667     0.823066666667     0.537100000000     0          
O        O      0.124333333333     0.813966666667     0.759300000000     0          
T        Si     0.083333333333     0.844133333333     0.750000000000     0          
O        O      0.093600000000     0.874200000000     0.712900000000     0          
O        O      0.102700000000     0.792333333333     0.490700000000     0          
O        O      0.042466666667     0.843600000000     0.462900000000     0          
O        O      0.124333333333     0.852700000000     0.240700000000     0          
O        O      0.073066666667     0.792466666667     0.212900000000     0          
O        O      0.063966666667     0.874333333333     0.990700000000     0          
O        O      0.124200000000     0.823066666667     0.962900000000     0          
O        O      0.042333333333     0.813966666667     0.740700000000     0          
O        O      0.389100000000     0.083333333333     0.148600000000     0          
O        O      0.457533333333     0.040866666667     0.125000000000     0          
O        O      0.410266666667     0.083333333333     0.074400000000     0          
O        O      0.333333333333     0.083333333333     0.206500000000     0          
O        O      0.406400000000     0.040866666667     0.212900000000     0          
O        O      0.397300000000     0.292333333333     0.990700000000     0          
O        O      0.333333333333     0.083333333333     0.042400000000     0          
T        Si     0.428666666667     0.083333333333     0.118200000000     0          
T        Si     0.383733333333     0.083333333333     0.195300000000     0          
T        Si     0.427466666667     0.000000000000     0.000000000000     0          
T        Si     0.384366666667     0.083333333333     0.033800000000     0          
O        O      0.333333333333     0.305766666667     0.398600000000     0          
O        O      0.375800000000     0.040866666667     0.375000000000     0          
O        O      0.333333333333     0.326933333333     0.324400000000     0          
O        O      0.333333333333     0.250000000000     0.456500000000     0          
O        O      0.375800000000     0.323066666667     0.462900000000     0          
O        O      0.457666666667     0.313966666667     0.240700000000     0          
O        O      0.333333333333     0.250000000000     0.292400000000     0          
T        Si     0.333333333333     0.012000000000     0.368200000000     0          
T        Si     0.333333333333     0.300400000000     0.445300000000     0          
T        Si     0.416666666667     0.010800000000     0.250000000000     0          
T        Si     0.333333333333     0.301033333333     0.283800000000     0          
O        O      0.444233333333     0.250000000000     0.648600000000     0          
O        O      0.375800000000     0.292466666667     0.625000000000     0          
O        O      0.423066666667     0.250000000000     0.574400000000     0          
O        O      0.500000000000     0.250000000000     0.706500000000     0          
O        O      0.426933333333     0.292466666667     0.712900000000     0          
O        O      0.436033333333     0.041000000000     0.490700000000     0          
O        O      0.500000000000     0.250000000000     0.542400000000     0          
T        Si     0.404666666667     0.250000000000     0.618200000000     0          
T        Si     0.449600000000     0.250000000000     0.695300000000     0          
T        Si     0.405866666667     0.000000000000     0.500000000000     0          
T        Si     0.448966666667     0.250000000000     0.533800000000     0          
O        O      0.500000000000     0.027566666667     0.898600000000     0          
O        O      0.457533333333     0.292466666667     0.875000000000     0          
O        O      0.500000000000     0.006400000000     0.824400000000     0          
O        O      0.500000000000     0.083333333333     0.956500000000     0          
O        O      0.457533333333     0.010266666667     0.962900000000     0          
O        O      0.375666666667     0.019366666667     0.740700000000     0          
O        O      0.500000000000     0.083333333333     0.792400000000     0          
T        Si     0.500000000000     0.321333333333     0.868200000000     0          
T        Si     0.500000000000     0.032933333333     0.945300000000     0          
T        Si     0.416666666667     0.322533333333     0.750000000000     0          
T        Si     0.500000000000     0.032300000000     0.783800000000     0          
O        O      0.389100000000     0.250000000000     0.851400000000     0          
O        O      0.410266666667     0.250000000000     0.925600000000     0          
O        O      0.333333333333     0.250000000000     0.793500000000     0          
O        O      0.406400000000     0.292466666667     0.787100000000     0          
O        O      0.397300000000     0.041000000000     0.009300000000     0          
O        O      0.333333333333     0.250000000000     0.957600000000     0          
T        Si     0.428666666667     0.250000000000     0.881800000000     0          
T        Si     0.383733333333     0.250000000000     0.804700000000     0          
T        Si     0.384366666667     0.250000000000     0.966200000000     0          
O        O      0.500000000000     0.305766666667     0.101400000000     0          
O        O      0.500000000000     0.326933333333     0.175600000000     0          
O        O      0.500000000000     0.250000000000     0.043500000000     0          
O        O      0.457533333333     0.323066666667     0.037100000000     0          
O        O      0.375666666667     0.313966666667     0.259300000000     0          
O        O      0.500000000000     0.250000000000     0.207600000000     0          
T        Si     0.500000000000     0.012000000000     0.131800000000     0          
T        Si     0.500000000000     0.300400000000     0.054700000000     0          
T        Si     0.500000000000     0.301033333333     0.216200000000     0          
O        O      0.444233333333     0.083333333333     0.351400000000     0          
O        O      0.423066666667     0.083333333333     0.425600000000     0          
O        O      0.500000000000     0.083333333333     0.293500000000     0          
O        O      0.426933333333     0.040866666667     0.287100000000     0          
O        O      0.436033333333     0.292333333333     0.509300000000     0          
O        O      0.500000000000     0.083333333333     0.457600000000     0          
T        Si     0.404666666667     0.083333333333     0.381800000000     0          
T        Si     0.449600000000     0.083333333333     0.304700000000     0          
T        Si     0.448966666667     0.083333333333     0.466200000000     0          
O        O      0.333333333333     0.027566666667     0.601400000000     0          
O        O      0.333333333333     0.006400000000     0.675600000000     0          
O        O      0.333333333333     0.083333333333     0.543500000000     0          
O        O      0.375800000000     0.010266666667     0.537100000000     0          
O        O      0.457666666667     0.019366666667     0.759300000000     0          
O        O      0.333333333333     0.083333333333     0.707600000000     0          
T        Si     0.333333333333     0.321333333333     0.631800000000     0          
T        Si     0.333333333333     0.032933333333     0.554700000000     0          
T        Si     0.333333333333     0.032300000000     0.716200000000     0          
O        O      0.610900000000     0.250000000000     0.851400000000     0          
O        O      0.542466666667     0.292466666667     0.875000000000     0          
O        O      0.589733333333     0.250000000000     0.925600000000     0          
O        O      0.593600000000     0.292466666667     0.787100000000     0          
O        O      0.602700000000     0.041000000000     0.009300000000     0          
T        Si     0.571333333333     0.250000000000     0.881800000000     0          
T        Si     0.616266666667     0.250000000000     0.804700000000     0          
T        Si     0.572533333333     0.000000000000     0.000000000000     0          
T        Si     0.615633333333     0.250000000000     0.966200000000     0          
O        O      0.624200000000     0.292466666667     0.625000000000     0          
O        O      0.624200000000     0.010266666667     0.537100000000     0          
O        O      0.542333333333     0.019366666667     0.759300000000     0          
T        Si     0.583333333333     0.322533333333     0.750000000000     0          
O        O      0.555766666667     0.083333333333     0.351400000000     0          
O        O      0.624200000000     0.040866666667     0.375000000000     0          
O        O      0.576933333333     0.083333333333     0.425600000000     0          
O        O      0.573066666667     0.040866666667     0.287100000000     0          
O        O      0.563966666667     0.292333333333     0.509300000000     0          
T        Si     0.595333333333     0.083333333333     0.381800000000     0          
T        Si     0.550400000000     0.083333333333     0.304700000000     0          
T        Si     0.594133333333     0.000000000000     0.500000000000     0          
T        Si     0.551033333333     0.083333333333     0.466200000000     0          
O        O      0.542466666667     0.040866666667     0.125000000000     0          
O        O      0.542466666667     0.323066666667     0.037100000000     0          
O        O      0.624333333333     0.313966666667     0.259300000000     0          
T        Si     0.583333333333     0.010800000000     0.250000000000     0          
O        O      0.610900000000     0.083333333333     0.148600000000     0          
O        O      0.589733333333     0.083333333333     0.074400000000     0          
O        O      0.593600000000     0.040866666667     0.212900000000     0          
O        O      0.602700000000     0.292333333333     0.990700000000     0          
T        Si     0.571333333333     0.083333333333     0.118200000000     0          
T        Si     0.616266666667     0.083333333333     0.195300000000     0          
T        Si     0.615633333333     0.083333333333     0.033800000000     0          
O        O      0.542466666667     0.010266666667     0.962900000000     0          
O        O      0.624333333333     0.019366666667     0.740700000000     0          
O        O      0.555766666667     0.250000000000     0.648600000000     0          
O        O      0.576933333333     0.250000000000     0.574400000000     0          
O        O      0.573066666667     0.292466666667     0.712900000000     0          
O        O      0.563966666667     0.041000000000     0.490700000000     0          
T        Si     0.595333333333     0.250000000000     0.618200000000     0          
T        Si     0.550400000000     0.250000000000     0.695300000000     0          
T        Si     0.551033333333     0.250000000000     0.533800000000     0          
O        O      0.624200000000     0.323066666667     0.462900000000     0          
O        O      0.542333333333     0.313966666667     0.240700000000     0          
O        O      0.624200000000     0.207533333333     0.625000000000     0          
O        O      0.573066666667     0.207533333333     0.712900000000     0          
O        O      0.563966666667     0.125666666667     0.490700000000     0          
T        Si     0.594133333333     0.166666666667     0.500000000000     0          
O        O      0.500000000000     0.139100000000     0.898600000000     0          
O        O      0.542466666667     0.207533333333     0.875000000000     0          
O        O      0.500000000000     0.160266666667     0.824400000000     0          
O        O      0.542466666667     0.156400000000     0.962900000000     0          
O        O      0.624333333333     0.147300000000     0.740700000000     0          
T        Si     0.500000000000     0.178666666667     0.868200000000     0          
T        Si     0.500000000000     0.133733333333     0.945300000000     0          
T        Si     0.583333333333     0.177466666667     0.750000000000     0          
T        Si     0.500000000000     0.134366666667     0.783800000000     0          
O        O      0.542466666667     0.125800000000     0.125000000000     0          
O        O      0.593600000000     0.125800000000     0.212900000000     0          
O        O      0.602700000000     0.207666666667     0.990700000000     0          
T        Si     0.572533333333     0.166666666667     0.000000000000     0          
O        O      0.333333333333     0.194233333333     0.398600000000     0          
O        O      0.624200000000     0.125800000000     0.375000000000     0          
O        O      0.333333333333     0.173066666667     0.324400000000     0          
O        O      0.624200000000     0.176933333333     0.462900000000     0          
O        O      0.542333333333     0.186033333333     0.240700000000     0          
T        Si     0.333333333333     0.154666666667     0.368200000000     0          
T        Si     0.333333333333     0.199600000000     0.445300000000     0          
T        Si     0.583333333333     0.155866666667     0.250000000000     0          
T        Si     0.333333333333     0.198966666667     0.283800000000     0          
O        O      0.573066666667     0.125800000000     0.287100000000     0          
O        O      0.563966666667     0.207666666667     0.509300000000     0          
O        O      0.333333333333     0.139100000000     0.601400000000     0          
O        O      0.333333333333     0.160266666667     0.675600000000     0          
O        O      0.624200000000     0.156400000000     0.537100000000     0          
O        O      0.542333333333     0.147300000000     0.759300000000     0          
T        Si     0.333333333333     0.178666666667     0.631800000000     0          
T        Si     0.333333333333     0.133733333333     0.554700000000     0          
T        Si     0.333333333333     0.134366666667     0.716200000000     0          
O        O      0.593600000000     0.207533333333     0.787100000000     0          
O        O      0.602700000000     0.125666666667     0.009300000000     0          
O        O      0.500000000000     0.194233333333     0.101400000000     0          
O        O      0.500000000000     0.173066666667     0.175600000000     0          
O        O      0.542466666667     0.176933333333     0.037100000000     0          
O        O      0.624333333333     0.186033333333     0.259300000000     0          
T        Si     0.500000000000     0.154666666667     0.131800000000     0          
T        Si     0.500000000000     0.199600000000     0.054700000000     0          
T        Si     0.500000000000     0.198966666667     0.216200000000     0          
O        O      0.375800000000     0.125800000000     0.375000000000     0          
O        O      0.426933333333     0.125800000000     0.287100000000     0          
O        O      0.436033333333     0.207666666667     0.509300000000     0          
T        Si     0.405866666667     0.166666666667     0.500000000000     0          
O        O      0.457533333333     0.125800000000     0.125000000000     0          
O        O      0.457533333333     0.176933333333     0.037100000000     0          
O        O      0.375666666667     0.186033333333     0.259300000000     0          
T        Si     0.416666666667     0.155866666667     0.250000000000     0          
O        O      0.457533333333     0.207533333333     0.875000000000     0          
O        O      0.406400000000     0.207533333333     0.787100000000     0          
O        O      0.397300000000     0.125666666667     0.009300000000     0          
T        Si     0.427466666667     0.166666666667     0.000000000000     0          
O        O      0.375800000000     0.207533333333     0.625000000000     0          
O        O      0.375800000000     0.156400000000     0.537100000000     0          
O        O      0.457666666667     0.147300000000     0.759300000000     0          
T        Si     0.416666666667     0.177466666667     0.750000000000     0          
O        O      0.426933333333     0.207533333333     0.712900000000     0          
O        O      0.436033333333     0.125666666667     0.490700000000     0          
O        O      0.375800000000     0.176933333333     0.462900000000     0          
O        O      0.457666666667     0.186033333333     0.240700000000     0          
O        O      0.406400000000     0.125800000000     0.212900000000     0          
O        O      0.397300000000     0.207666666667     0.990700000000     0          
O        O      0.457533333333     0.156400000000     0.962900000000     0          
O        O      0.375666666667     0.147300000000     0.740700000000     0          
O        O      0.389100000000     0.416666666667     0.148600000000     0          
O        O      0.457533333333     0.374200000000     0.125000000000     0          
O        O      0.410266666667     0.416666666667     0.074400000000     0          
O        O      0.333333333333     0.416666666667     0.206500000000     0          
O        O      0.406400000000     0.374200000000     0.212900000000     0          
O        O      0.397300000000     0.625666666667     0.990700000000     0          
O        O      0.333333333333     0.416666666667     0.042400000000     0          
T        Si     0.428666666667     0.416666666667     0.118200000000     0          
T        Si     0.383733333333     0.416666666667     0.195300000000     0          
T        Si     0.427466666667     0.333333333333     0.000000000000     0          
T        Si     0.384366666667     0.416666666667     0.033800000000     0          
O        O      0.333333333333     0.639100000000     0.398600000000     0          
O        O      0.375800000000     0.374200000000     0.375000000000     0          
O        O      0.333333333333     0.660266666667     0.324400000000     0          
O        O      0.333333333333     0.583333333333     0.456500000000     0          
O        O      0.375800000000     0.656400000000     0.462900000000     0          
O        O      0.457666666667     0.647300000000     0.240700000000     0          
O        O      0.333333333333     0.583333333333     0.292400000000     0          
T        Si     0.333333333333     0.345333333333     0.368200000000     0          
T        Si     0.333333333333     0.633733333333     0.445300000000     0          
T        Si     0.416666666667     0.344133333333     0.250000000000     0          
T        Si     0.333333333333     0.634366666667     0.283800000000     0          
O        O      0.444233333333     0.583333333333     0.648600000000     0          
O        O      0.375800000000     0.625800000000     0.625000000000     0          
O        O      0.423066666667     0.583333333333     0.574400000000     0          
O        O      0.500000000000     0.583333333333     0.706500000000     0          
O        O      0.426933333333     0.625800000000     0.712900000000     0          
O        O      0.436033333333     0.374333333333     0.490700000000     0          
O        O      0.500000000000     0.583333333333     0.542400000000     0          
T        Si     0.404666666667     0.583333333333     0.618200000000     0          
T        Si     0.449600000000     0.583333333333     0.695300000000     0          
T        Si     0.405866666667     0.333333333333     0.500000000000     0          
T        Si     0.448966666667     0.583333333333     0.533800000000     0          
O        O      0.500000000000     0.360900000000     0.898600000000     0          
O        O      0.457533333333     0.625800000000     0.875000000000     0          
O        O      0.500000000000     0.339733333333     0.824400000000     0          
O        O      0.500000000000     0.416666666667     0.956500000000     0          
O        O      0.457533333333     0.343600000000     0.962900000000     0          
O        O      0.375666666667     0.352700000000     0.740700000000     0          
O        O      0.500000000000     0.416666666667     0.792400000000     0          
T        Si     0.500000000000     0.654666666667     0.868200000000     0          
T        Si     0.500000000000     0.366266666667     0.945300000000     0          
T        Si     0.416666666667     0.655866666667     0.750000000000     0          
T        Si     0.500000000000     0.365633333333     0.783800000000     0          
O        O      0.389100000000     0.583333333333     0.851400000000     0          
O        O      0.410266666667     0.583333333333     0.925600000000     0          
O        O      0.333333333333     0.583333333333     0.793500000000     0          
O        O      0.406400000000     0.625800000000     0.787100000000     0          
O        O      0.397300000000     0.374333333333     0.009300000000     0          
O        O      0.333333333333     0.583333333333     0.957600000000     0          
T        Si     0.428666666667     0.583333333333     0.881800000000     0          
T        Si     0.383733333333     0.583333333333     0.804700000000     0          
T        Si     0.384366666667     0.583333333333     0.966200000000     0          
O        O      0.500000000000     0.639100000000     0.101400000000     0          
O        O      0.500000000000     0.660266666667     0.175600000000     0          
O        O      0.500000000000     0.583333333333     0.043500000000     0          
O        O      0.457533333333     0.656400000000     0.037100000000     0          
O        O      0.375666666667     0.647300000000     0.259300000000     0          
O        O      0.500000000000     0.583333333333     0.207600000000     0          
T        Si     0.500000000000     0.345333333333     0.131800000000     0          
T        Si     0.500000000000     0.633733333333     0.054700000000     0          
T        Si     0.500000000000     0.634366666667     0.216200000000     0          
O        O      0.444233333333     0.416666666667     0.351400000000     0          
O        O      0.423066666667     0.416666666667     0.425600000000     0          
O        O      0.500000000000     0.416666666667     0.293500000000     0          
O        O      0.426933333333     0.374200000000     0.287100000000     0          
O        O      0.436033333333     0.625666666667     0.509300000000     0          
O        O      0.500000000000     0.416666666667     0.457600000000     0          
T        Si     0.404666666667     0.416666666667     0.381800000000     0          
T        Si     0.449600000000     0.416666666667     0.304700000000     0          
T        Si     0.448966666667     0.416666666667     0.466200000000     0          
O        O      0.333333333333     0.360900000000     0.601400000000     0          
O        O      0.333333333333     0.339733333333     0.675600000000     0          
O        O      0.333333333333     0.416666666667     0.543500000000     0          
O        O      0.375800000000     0.343600000000     0.537100000000     0          
O        O      0.457666666667     0.352700000000     0.759300000000     0          
O        O      0.333333333333     0.416666666667     0.707600000000     0          
T        Si     0.333333333333     0.654666666667     0.631800000000     0          
T        Si     0.333333333333     0.366266666667     0.554700000000     0          
T        Si     0.333333333333     0.365633333333     0.716200000000     0          
O        O      0.610900000000     0.583333333333     0.851400000000     0          
O        O      0.542466666667     0.625800000000     0.875000000000     0          
O        O      0.589733333333     0.583333333333     0.925600000000     0          
O        O      0.593600000000     0.625800000000     0.787100000000     0          
O        O      0.602700000000     0.374333333333     0.009300000000     0          
T        Si     0.571333333333     0.583333333333     0.881800000000     0          
T        Si     0.616266666667     0.583333333333     0.804700000000     0          
T        Si     0.572533333333     0.333333333333     0.000000000000     0          
T        Si     0.615633333333     0.583333333333     0.966200000000     0          
O        O      0.624200000000     0.625800000000     0.625000000000     0          
O        O      0.624200000000     0.343600000000     0.537100000000     0          
O        O      0.542333333333     0.352700000000     0.759300000000     0          
T        Si     0.583333333333     0.655866666667     0.750000000000     0          
O        O      0.555766666667     0.416666666667     0.351400000000     0          
O        O      0.624200000000     0.374200000000     0.375000000000     0          
O        O      0.576933333333     0.416666666667     0.425600000000     0          
O        O      0.573066666667     0.374200000000     0.287100000000     0          
O        O      0.563966666667     0.625666666667     0.509300000000     0          
T        Si     0.595333333333     0.416666666667     0.381800000000     0          
T        Si     0.550400000000     0.416666666667     0.304700000000     0          
T        Si     0.594133333333     0.333333333333     0.500000000000     0          
T        Si     0.551033333333     0.416666666667     0.466200000000     0          
O        O      0.542466666667     0.374200000000     0.125000000000     0          
O        O      0.542466666667     0.656400000000     0.037100000000     0          
O        O      0.624333333333     0.647300000000     0.259300000000     0          
T        Si     0.583333333333     0.344133333333     0.250000000000     0          
O        O      0.610900000000     0.416666666667     0.148600000000     0          
O        O      0.589733333333     0.416666666667     0.074400000000     0          
O        O      0.593600000000     0.374200000000     0.212900000000     0          
O        O      0.602700000000     0.625666666667     0.990700000000     0          
T        Si     0.571333333333     0.416666666667     0.118200000000     0          
T        Si     0.616266666667     0.416666666667     0.195300000000     0          
T        Si     0.615633333333     0.416666666667     0.033800000000     0          
O        O      0.542466666667     0.343600000000     0.962900000000     0          
O        O      0.624333333333     0.352700000000     0.740700000000     0          
O        O      0.555766666667     0.583333333333     0.648600000000     0          
O        O      0.576933333333     0.583333333333     0.574400000000     0          
O        O      0.573066666667     0.625800000000     0.712900000000     0          
O        O      0.563966666667     0.374333333333     0.490700000000     0          
T        Si     0.595333333333     0.583333333333     0.618200000000     0          
T        Si     0.550400000000     0.583333333333     0.695300000000     0          
T        Si     0.551033333333     0.583333333333     0.533800000000     0          
O        O      0.624200000000     0.656400000000     0.462900000000     0          
O        O      0.542333333333     0.647300000000     0.240700000000     0          
O        O      0.624200000000     0.540866666667     0.625000000000     0          
O        O      0.573066666667     0.540866666667     0.712900000000     0          
O        O      0.563966666667     0.459000000000     0.490700000000     0          
T        Si     0.594133333333     0.500000000000     0.500000000000     0          
O        O      0.500000000000     0.472433333333     0.898600000000     0          
O        O      0.542466666667     0.540866666667     0.875000000000     0          
O        O      0.500000000000     0.493600000000     0.824400000000     0          
O        O      0.542466666667     0.489733333333     0.962900000000     0          
O        O      0.624333333333     0.480633333333     0.740700000000     0          
T        Si     0.500000000000     0.512000000000     0.868200000000     0          
T        Si     0.500000000000     0.467066666667     0.945300000000     0          
T        Si     0.583333333333     0.510800000000     0.750000000000     0          
T        Si     0.500000000000     0.467700000000     0.783800000000     0          
O        O      0.542466666667     0.459133333333     0.125000000000     0          
O        O      0.593600000000     0.459133333333     0.212900000000     0          
O        O      0.602700000000     0.541000000000     0.990700000000     0          
T        Si     0.572533333333     0.500000000000     0.000000000000     0          
O        O      0.333333333333     0.527566666667     0.398600000000     0          
O        O      0.624200000000     0.459133333333     0.375000000000     0          
O        O      0.333333333333     0.506400000000     0.324400000000     0          
O        O      0.624200000000     0.510266666667     0.462900000000     0          
O        O      0.542333333333     0.519366666667     0.240700000000     0          
T        Si     0.333333333333     0.488000000000     0.368200000000     0          
T        Si     0.333333333333     0.532933333333     0.445300000000     0          
T        Si     0.583333333333     0.489200000000     0.250000000000     0          
T        Si     0.333333333333     0.532300000000     0.283800000000     0          
O        O      0.573066666667     0.459133333333     0.287100000000     0          
O        O      0.563966666667     0.541000000000     0.509300000000     0          
O        O      0.333333333333     0.472433333333     0.601400000000     0          
O        O      0.333333333333     0.493600000000     0.675600000000     0          
O        O      0.624200000000     0.489733333333     0.537100000000     0          
O        O      0.542333333333     0.480633333333     0.759300000000     0          
T        Si     0.333333333333     0.512000000000     0.631800000000     0          
T        Si     0.333333333333     0.467066666667     0.554700000000     0          
T        Si     0.333333333333     0.467700000000     0.716200000000     0          
O        O      0.593600000000     0.540866666667     0.787100000000     0          
O        O      0.602700000000     0.459000000000     0.009300000000     0          
O        O      0.500000000000     0.527566666667     0.101400000000     0          
O        O      0.500000000000     0.506400000000     0.175600000000     0          
O        O      0.542466666667     0.510266666667     0.037100000000     0          
O        O      0.624333333333     0.519366666667     0.259300000000     0          
T        Si     0.500000000000     0.488000000000     0.131800000000     0          
T        Si     0.500000000000     0.532933333333     0.054700000000     0          
T        Si     0.500000000000     0.532300000000     0.216200000000     0          
O        O      0.375800000000     0.459133333333     0.375000000000     0          
O        O      0.426933333333     0.459133333333     0.287100000000     0          
O        O      0.436033333333     0.541000000000     0.509300000000     0          
T        Si     0.405866666667     0.500000000000     0.500000000000     0          
O        O      0.457533333333     0.459133333333     0.125000000000     0          
O        O      0.457533333333     0.510266666667     0.037100000000     0          
O        O      0.375666666667     0.519366666667     0.259300000000     0          
T        Si     0.416666666667     0.489200000000     0.250000000000     0          
O        O      0.457533333333     0.540866666667     0.875000000000     0          
O        O      0.406400000000     0.540866666667     0.787100000000     0          
O        O      0.397300000000     0.459000000000     0.009300000000     0          
T        Si     0.427466666667     0.500000000000     0.000000000000     0          
O        O      0.375800000000     0.540866666667     0.625000000000     0          
O        O      0.375800000000     0.489733333333     0.537100000000     0          
O        O      0.457666666667     0.480633333333     0.759300000000     0          
T        Si     0.416666666667     0.510800000000     0.750000000000     0          
O        O      0.426933333333     0.540866666667     0.712900000000     0          
O        O      0.436033333333     0.459000000000     0.490700000000     0          
O        O      0.375800000000     0.510266666667     0.462900000000     0          
O        O      0.457666666667     0.519366666667     0.240700000000     0          
O        O      0.406400000000     0.459133333333     0.212900000000     0          
O        O      0.397300000000     0.541000000000     0.990700000000     0          
O        O      0.457533333333     0.489733333333     0.962900000000     0          
O        O      0.375666666667     0.480633333333     0.740700000000     0          
O        O      0.389100000000     0.750000000000     0.148600000000     0          
O        O      0.457533333333     0.707533333333     0.125000000000     0          
O        O      0.410266666667     0.750000000000     0.074400000000     0          
O        O      0.333333333333     0.750000000000     0.206500000000     0          
O        O      0.406400000000     0.707533333333     0.212900000000     0          
O        O      0.397300000000     0.959000000000     0.990700000000     0          
O        O      0.333333333333     0.750000000000     0.042400000000     0          
T        Si     0.428666666667     0.750000000000     0.118200000000     0          
T        Si     0.383733333333     0.750000000000     0.195300000000     0          
T        Si     0.427466666667     0.666666666667     0.000000000000     0          
T        Si     0.384366666667     0.750000000000     0.033800000000     0          
O        O      0.333333333333     0.972433333333     0.398600000000     0          
O        O      0.375800000000     0.707533333333     0.375000000000     0          
O        O      0.333333333333     0.993600000000     0.324400000000     0          
O        O      0.333333333333     0.916666666667     0.456500000000     0          
O        O      0.375800000000     0.989733333333     0.462900000000     0          
O        O      0.457666666667     0.980633333333     0.240700000000     0          
O        O      0.333333333333     0.916666666667     0.292400000000     0          
T        Si     0.333333333333     0.678666666667     0.368200000000     0          
T        Si     0.333333333333     0.967066666667     0.445300000000     0          
T        Si     0.416666666667     0.677466666667     0.250000000000     0          
T        Si     0.333333333333     0.967700000000     0.283800000000     0          
O        O      0.444233333333     0.916666666667     0.648600000000     0          
O        O      0.375800000000     0.959133333333     0.625000000000     0          
O        O      0.423066666667     0.916666666667     0.574400000000     0          
O        O      0.500000000000     0.916666666667     0.706500000000     0          
O        O      0.426933333333     0.959133333333     0.712900000000     0          
O        O      0.436033333333     0.707666666667     0.490700000000     0          
O        O      0.500000000000     0.916666666667     0.542400000000     0          
T        Si     0.404666666667     0.916666666667     0.618200000000     0          
T        Si     0.449600000000     0.916666666667     0.695300000000     0          
T        Si     0.405866666667     0.666666666667     0.500000000000     0          
T        Si     0.448966666667     0.916666666667     0.533800000000     0          
O        O      0.500000000000     0.694233333333     0.898600000000     0          
O        O      0.457533333333     0.959133333333     0.875000000000     0          
O        O      0.500000000000     0.673066666667     0.824400000000     0          
O        O      0.500000000000     0.750000000000     0.956500000000     0          
O        O      0.457533333333     0.676933333333     0.962900000000     0          
O        O      0.375666666667     0.686033333333     0.740700000000     0          
O        O      0.500000000000     0.750000000000     0.792400000000     0          
T        Si     0.500000000000     0.988000000000     0.868200000000     0          
T        Si     0.500000000000     0.699600000000     0.945300000000     0          
T        Si     0.416666666667     0.989200000000     0.750000000000     0          
T        Si     0.500000000000     0.698966666667     0.783800000000     0          
O        O      0.389100000000     0.916666666667     0.851400000000     0          
O        O      0.410266666667     0.916666666667     0.925600000000     0          
O        O      0.333333333333     0.916666666667     0.793500000000     0          
O        O      0.406400000000     0.959133333333     0.787100000000     0          
O        O      0.397300000000     0.707666666667     0.009300000000     0          
O        O      0.333333333333     0.916666666667     0.957600000000     0          
T        Si     0.428666666667     0.916666666667     0.881800000000     0          
T        Si     0.383733333333     0.916666666667     0.804700000000     0          
T        Si     0.384366666667     0.916666666667     0.966200000000     0          
O        O      0.500000000000     0.972433333333     0.101400000000     0          
O        O      0.500000000000     0.993600000000     0.175600000000     0          
O        O      0.500000000000     0.916666666667     0.043500000000     0          
O        O      0.457533333333     0.989733333333     0.037100000000     0          
O        O      0.375666666667     0.980633333333     0.259300000000     0          
O        O      0.500000000000     0.916666666667     0.207600000000     0          
T        Si     0.500000000000     0.678666666667     0.131800000000     0          
T        Si     0.500000000000     0.967066666667     0.054700000000     0          
T        Si     0.500000000000     0.967700000000     0.216200000000     0          
O        O      0.444233333333     0.750000000000     0.351400000000     0          
O        O      0.423066666667     0.750000000000     0.425600000000     0          
O        O      0.500000000000     0.750000000000     0.293500000000     0          
O        O      0.426933333333     0.707533333333     0.287100000000     0          
O        O      0.436033333333     0.959000000000     0.509300000000     0          
O        O      0.500000000000     0.750000000000     0.457600000000     0          
T        Si     0.404666666667     0.750000000000     0.381800000000     0          
T        Si     0.449600000000     0.750000000000     0.304700000000     0          
T        Si     0.448966666667     0.750000000000     0.466200000000     0          
O        O      0.333333333333     0.694233333333     0.601400000000     0          
O        O      0.333333333333     0.673066666667     0.675600000000     0          
O        O      0.333333333333     0.750000000000     0.543500000000     0          
O        O      0.375800000000     0.676933333333     0.537100000000     0          
O        O      0.457666666667     0.686033333333     0.759300000000     0          
O        O      0.333333333333     0.750000000000     0.707600000000     0          
T        Si     0.333333333333     0.988000000000     0.631800000000     0          
T        Si     0.333333333333     0.699600000000     0.554700000000     0          
T        Si     0.333333333333     0.698966666667     0.716200000000     0          
O        O      0.610900000000     0.916666666667     0.851400000000     0          
O        O      0.542466666667     0.959133333333     0.875000000000     0          
O        O      0.589733333333     0.916666666667     0.925600000000     0          
O        O      0.593600000000     0.959133333333     0.787100000000     0          
O        O      0.602700000000     0.707666666667     0.009300000000     0          
T        Si     0.571333333333     0.916666666667     0.881800000000     0          
T        Si     0.616266666667     0.916666666667     0.804700000000     0          
T        Si     0.572533333333     0.666666666667     0.000000000000     0          
T        Si     0.615633333333     0.916666666667     0.966200000000     0          
O        O      0.624200000000     0.959133333333     0.625000000000     0          
O        O      0.624200000000     0.676933333333     0.537100000000     0          
O        O      0.542333333333     0.686033333333     0.759300000000     0          
T        Si     0.583333333333     0.989200000000     0.750000000000     0          
O        O      0.555766666667     0.750000000000     0.351400000000     0          
O        O      0.624200000000     0.707533333333     0.375000000000     0          
O        O      0.576933333333     0.750000000000     0.425600000000     0          
O        O      0.573066666667     0.707533333333     0.287100000000     0          
O        O      0.563966666667     0.959000000000     0.509300000000     0          
T        Si     0.595333333333     0.750000000000     0.381800000000     0          
T        Si     0.550400000000     0.750000000000     0.304700000000     0          
T        Si     0.594133333333     0.666666666667     0.500000000000     0          
T        Si     0.551033333333     0.750000000000     0.466200000000     0          
O        O      0.542466666667     0.707533333333     0.125000000000     0          
O        O      0.542466666667     0.989733333333     0.037100000000     0          
O        O      0.624333333333     0.980633333333     0.259300000000     0          
T        Si     0.583333333333     0.677466666667     0.250000000000     0          
O        O      0.610900000000     0.750000000000     0.148600000000     0          
O        O      0.589733333333     0.750000000000     0.074400000000     0          
O        O      0.593600000000     0.707533333333     0.212900000000     0          
O        O      0.602700000000     0.959000000000     0.990700000000     0          
T        Si     0.571333333333     0.750000000000     0.118200000000     0          
T        Si     0.616266666667     0.750000000000     0.195300000000     0          
T        Si     0.615633333333     0.750000000000     0.033800000000     0          
O        O      0.542466666667     0.676933333333     0.962900000000     0          
O        O      0.624333333333     0.686033333333     0.740700000000     0          
O        O      0.555766666667     0.916666666667     0.648600000000     0          
O        O      0.576933333333     0.916666666667     0.574400000000     0          
O        O      0.573066666667     0.959133333333     0.712900000000     0          
O        O      0.563966666667     0.707666666667     0.490700000000     0          
T        Si     0.595333333333     0.916666666667     0.618200000000     0          
T        Si     0.550400000000     0.916666666667     0.695300000000     0          
T        Si     0.551033333333     0.916666666667     0.533800000000     0          
O        O      0.624200000000     0.989733333333     0.462900000000     0          
O        O      0.542333333333     0.980633333333     0.240700000000     0          
O        O      0.624200000000     0.874200000000     0.625000000000     0          
O        O      0.573066666667     0.874200000000     0.712900000000     0          
O        O      0.563966666667     0.792333333333     0.490700000000     0          
T        Si     0.594133333333     0.833333333333     0.500000000000     0          
O        O      0.500000000000     0.805766666667     0.898600000000     0          
O        O      0.542466666667     0.874200000000     0.875000000000     0          
O        O      0.500000000000     0.826933333333     0.824400000000     0          
O        O      0.542466666667     0.823066666667     0.962900000000     0          
O        O      0.624333333333     0.813966666667     0.740700000000     0          
T        Si     0.500000000000     0.845333333333     0.868200000000     0          
T        Si     0.500000000000     0.800400000000     0.945300000000     0          
T        Si     0.583333333333     0.844133333333     0.750000000000     0          
T        Si     0.500000000000     0.801033333333     0.783800000000     0          
O        O      0.542466666667     0.792466666667     0.125000000000     0          
O        O      0.593600000000     0.792466666667     0.212900000000     0          
O        O      0.602700000000     0.874333333333     0.990700000000     0          
T        Si     0.572533333333     0.833333333333     0.000000000000     0          
O        O      0.333333333333     0.860900000000     0.398600000000     0          
O        O      0.624200000000     0.792466666667     0.375000000000     0          
O        O      0.333333333333     0.839733333333     0.324400000000     0          
O        O      0.624200000000     0.843600000000     0.462900000000     0          
O        O      0.542333333333     0.852700000000     0.240700000000     0          
T        Si     0.333333333333     0.821333333333     0.368200000000     0          
T        Si     0.333333333333     0.866266666667     0.445300000000     0          
T        Si     0.583333333333     0.822533333333     0.250000000000     0          
T        Si     0.333333333333     0.865633333333     0.283800000000     0          
O        O      0.573066666667     0.792466666667     0.287100000000     0          
O        O      0.563966666667     0.874333333333     0.509300000000     0          
O        O      0.333333333333     0.805766666667     0.601400000000     0          
O        O      0.333333333333     0.826933333333     0.675600000000     0          
O        O      0.624200000000     0.823066666667     0.537100000000     0          
O        O      0.542333333333     0.813966666667     0.759300000000     0          
T        Si     0.333333333333     0.845333333333     0.631800000000     0          
T        Si     0.333333333333     0.800400000000     0.554700000000     0          
T        Si     0.333333333333     0.801033333333     0.716200000000     0          
O        O      0.593600000000     0.874200000000     0.787100000000     0          
O        O      0.602700000000     0.792333333333     0.009300000000     0          
O        O      0.500000000000     0.860900000000     0.101400000000     0          
O        O      0.500000000000     0.839733333333     0.175600000000     0          
O        O      0.542466666667     0.843600000000     0.037100000000     0          
O        O      0.624333333333     0.852700000000     0.259300000000     0          
T        Si     0.500000000000     0.821333333333     0.131800000000     0          
T        Si     0.500000000000     0.866266666667     0.054700000000     0          
T        Si     0.500000000000     0.865633333333     0.216200000000     0          
O        O      0.375800000000     0.792466666667     0.375000000000     0          
O        O      0.426933333333     0.792466666667     0.287100000000     0          
O        O      0.436033333333     0.874333333333     0.509300000000     0          
T        Si     0.405866666667     0.833333333333     0.500000000000     0          
O        O      0.457533333333     0.792466666667     0.125000000000     0          
O        O      0.457533333333     0.843600000000     0.037100000000     0          
O        O      0.375666666667     0.852700000000     0.259300000000     0          
T        Si     0.416666666667     0.822533333333     0.250000000000     0          
O        O      0.457533333333     0.874200000000     0.875000000000     0          
O        O      0.406400000000     0.874200000000     0.787100000000     0          
O        O      0.397300000000     0.792333333333     0.009300000000     0          
T        Si     0.427466666667     0.833333333333     0.000000000000     0          
O        O      0.375800000000     0.874200000000     0.625000000000     0          
O        O      0.375800000000     0.823066666667     0.537100000000     0          
O        O      0.457666666667     0.813966666667     0.759300000000     0          
T        Si     0.416666666667     0.844133333333     0.750000000000     0          
O        O      0.426933333333     0.874200000000     0.712900000000     0          
O        O      0.436033333333     0.792333333333     0.490700000000     0          
O        O      0.375800000000     0.843600000000     0.462900000000     0          
O        O      0.457666666667     0.852700000000     0.240700000000     0          
O        O      0.406400000000     0.792466666667     0.212900000000     0          
O        O      0.397300000000     0.874333333333     0.990700000000     0          
O        O      0.457533333333     0.823066666667     0.962900000000     0          
O        O      0.375666666667     0.813966666667     0.740700000000     0          
O        O      0.722433333333     0.083333333333     0.148600000000     0          
O        O      0.790866666667     0.040866666667     0.125000000000     0          
O        O      0.743600000000     0.083333333333     0.074400000000     0          
O        O      0.666666666667     0.083333333333     0.206500000000     0          
O        O      0.739733333333     0.040866666667     0.212900000000     0          
O        O      0.730633333333     0.292333333333     0.990700000000     0          
O        O      0.666666666667     0.083333333333     0.042400000000     0          
T        Si     0.762000000000     0.083333333333     0.118200000000     0          
T        Si     0.717066666667     0.083333333333     0.195300000000     0          
T        Si     0.760800000000     0.000000000000     0.000000000000     0          
T        Si     0.717700000000     0.083333333333     0.033800000000     0          
O        O      0.666666666667     0.305766666667     0.398600000000     0          
O        O      0.709133333333     0.040866666667     0.375000000000     0          
O        O      0.666666666667     0.326933333333     0.324400000000     0          
O        O      0.666666666667     0.250000000000     0.456500000000     0          
O        O      0.709133333333     0.323066666667     0.462900000000     0          
O        O      0.791000000000     0.313966666667     0.240700000000     0          
O        O      0.666666666667     0.250000000000     0.292400000000     0          
T        Si     0.666666666667     0.012000000000     0.368200000000     0          
T        Si     0.666666666667     0.300400000000     0.445300000000     0          
T        Si     0.750000000000     0.010800000000     0.250000000000     0          
T        Si     0.666666666667     0.301033333333     0.283800000000     0          
O        O      0.777566666667     0.250000000000     0.648600000000     0          
O        O      0.709133333333     0.292466666667     0.625000000000     0          
O        O      0.756400000000     0.250000000000     0.574400000000     0          
O        O      0.833333333333     0.250000000000     0.706500000000     0          
O        O      0.760266666667     0.292466666667     0.712900000000     0          
O        O      0.769366666667     0.041000000000     0.490700000000     0          
O        O      0.833333333333     0.250000000000     0.542400000000     0          
T        Si     0.738000000000     0.250000000000     0.618200000000     0          
T        Si     0.782933333333     0.250000000000     0.695300000000     0          
T        Si     0.739200000000     0.000000000000     0.500000000000     0          
T        Si     0.782300000000     0.250000000000     0.533800000000     0          
O        O      0.833333333333     0.027566666667     0.898600000000     0          
O        O      0.790866666667     0.292466666667     0.875000000000     0          
O        O      0.833333333333     0.006400000000     0.824400000000     0          
O        O      0.833333333333     0.083333333333     0.956500000000     0          
O        O      0.790866666667     0.010266666667     0.962900000000     0          
O        O      0.709000000000     0.019366666667     0.740700000000     0          
O        O      0.833333333333     0.083333333333     0.792400000000     0          
T        Si     0.833333333333     0.321333333333     0.868200000000     0          
T        Si     0.833333333333     0.032933333333     0.945300000000     0          
T        Si     0.750000000000     0.322533333333     0.750000000000     0          
T        Si     0.833333333333     0.032300000000     0.783800000000     0          
O        O      0.722433333333     0.250000000000     0.851400000000     0          
O        O      0.743600000000     0.250000000000     0.925600000000     0          
O        O      0.666666666667     0.250000000000     0.793500000000     0          
O        O      0.739733333333     0.292466666667     0.787100000000     0          
O        O      0.730633333333     0.041000000000     0.009300000000     0          
O        O      0.666666666667     0.250000000000     0.957600000000     0          
T        Si     0.762000000000     0.250000000000     0.881800000000     0          
T        Si     0.717066666667     0.250000000000     0.804700000000     0          
T        Si     0.717700000000     0.250000000000     0.966200000000     0          
O        O      0.833333333333     0.305766666667     0.101400000000     0          
O        O      0.833333333333     0.326933333333     0.175600000000     0          
O        O      0.833333333333     0.250000000000     0.043500000000     0          
O        O      0.790866666667     0.323066666667     0.037100000000     0          
O        O      0.709000000000     0.313966666667     0.259300000000     0          
O        O      0.833333333333     0.250000000000     0.207600000000     0          
T        Si     0.833333333333     0.012000000000     0.131800000000     0          
T        Si     0.833333333333     0.300400000000     0.054700000000     0          
T        Si     0.833333333333     0.301033333333     0.216200000000     0          
O        O      0.777566666667     0.083333333333     0.351400000000     0          
O        O      0.756400000000     0.083333333333     0.425600000000     0          
O        O      0.833333333333     0.083333333333     0.293500000000     0          
O        O      0.760266666667     0.040866666667     0.287100000000     0          
O        O      0.769366666667     0.292333333333     0.509300000000     0          
O        O      0.833333333333     0.083333333333     0.457600000000     0          
T        Si     0.738000000000     0.083333333333     0.381800000000     0          
T        Si     0.782933333333     0.083333333333     0.304700000000     0          
T        Si     0.782300000000     0.083333333333     0.466200000000     0          
O        O      0.666666666667     0.027566666667     0.601400000000     0          
O        O      0.666666666667     0.006400000000     0.675600000000     0          
O        O      0.666666666667     0.083333333333     0.543500000000     0          
O        O      0.709133333333     0.010266666667     0.537100000000     0          
O        O      0.791000000000     0.019366666667     0.759300000000     0          
O        O      0.666666666667     0.083333333333     0.707600000000     0          
T        Si     0.666666666667     0.321333333333     0.631800000000     0          
T        Si     0.666666666667     0.032933333333     0.554700000000     0          
T        Si     0.666666666667     0.032300000000     0.716200000000     0          
O        O      0.944233333333     0.250000000000     0.851400000000     0          
O        O      0.875800000000     0.292466666667     0.875000000000     0          
O        O      0.923066666667     0.250000000000     0.925600000000     0          
O        O      0.926933333333     0.292466666667     0.787100000000     0          
O        O      0.936033333333     0.041000000000     0.009300000000     0          
T        Si     0.904666666667     0.250000000000     0.881800000000     0          
T        Si     0.949600000000     0.250000000000     0.804700000000     0          
T        Si     0.905866666667     0.000000000000     0.000000000000     0          
T        Si     0.948966666667     0.250000000000     0.966200000000     0          
O        O      0.957533333333     0.292466666667     0.625000000000     0          
O        O      0.957533333333     0.010266666667     0.537100000000     0          
O        O      0.875666666667     0.019366666667     0.759300000000     0          
T        Si     0.916666666667     0.322533333333     0.750000000000     0          
O        O      0.889100000000     0.083333333333     0.351400000000     0          
O        O      0.957533333333     0.040866666667     0.375000000000     0          
O        O      0.910266666667     0.083333333333     0.425600000000     0          
O        O      0.906400000000     0.040866666667     0.287100000000     0          
O        O      0.897300000000     0.292333333333     0.509300000000     0          
T        Si     0.928666666667     0.083333333333     0.381800000000     0          
T        Si     0.883733333333     0.083333333333     0.304700000000     0          
T        Si     0.927466666667     0.000000000000     0.500000000000     0          
T        Si     0.884366666667     0.083333333333     0.466200000000     0          
O        O      0.875800000000     0.040866666667     0.125000000000     0          
O        O      0.875800000000     0.323066666667     0.037100000000     0          
O        O      0.957666666667     0.313966666667     0.259300000000     0          
T        Si     0.916666666667     0.010800000000     0.250000000000     0          
O        O      0.944233333333     0.083333333333     0.148600000000     0          
O        O      0.923066666667     0.083333333333     0.074400000000     0          
O        O      0.926933333333     0.040866666667     0.212900000000     0          
O        O      0.936033333333     0.292333333333     0.990700000000     0          
T        Si     0.904666666667     0.083333333333     0.118200000000     0          
T        Si     0.949600000000     0.083333333333     0.195300000000     0          
T        Si     0.948966666667     0.083333333333     0.033800000000     0          
O        O      0.875800000000     0.010266666667     0.962900000000     0          
O        O      0.957666666667     0.019366666667     0.740700000000     0          
O        O      0.889100000000     0.250000000000     0.648600000000     0          
O        O      0.910266666667     0.250000000000     0.574400000000     0          
O        O      0.906400000000     0.292466666667     0.712900000000     0          
O        O      0.897300000000     0.041000000000     0.490700000000     0          
T        Si     0.928666666667     0.250000000000     0.618200000000     0          
T        Si     0.883733333333     0.250000000000     0.695300000000     0          
T        Si     0.884366666667     0.250000000000     0.533800000000     0          
O        O      0.957533333333     0.323066666667     0.462900000000     0          
O        O      0.875666666667     0.313966666667     0.240700000000     0          
O        O      0.957533333333     0.207533333333     0.625000000000     0          
O        O      0.906400000000     0.207533333333     0.712900000000     0          
O        O      0.897300000000     0.125666666667     0.490700000000     0          
T        Si     0.927466666667     0.166666666667     0.500000000000     0          
O        O      0.833333333333     0.139100000000     0.898600000000     0          
O        O      0.875800000000     0.207533333333     0.875000000000     0          
O        O      0.833333333333     0.160266666667     0.824400000000     0          
O        O      0.875800000000     0.156400000000     0.962900000000     0          
O        O      0.957666666667     0.147300000000     0.740700000000     0          
T        Si     0.833333333333     0.178666666667     0.868200000000     0          
T        Si     0.833333333333     0.133733333333     0.945300000000     0          
T        Si     0.916666666667     0.177466666667     0.750000000000     0          
T        Si     0.833333333333     0.134366666667     0.783800000000     0          
O        O      0.875800000000     0.125800000000     0.125000000000     0          
O        O      0.926933333333     0.125800000000     0.212900000000     0          
O        O      0.936033333333     0.207666666667     0.990700000000     0          
T        Si     0.905866666667     0.166666666667     0.000000000000     0          
O        O      0.666666666667     0.194233333333     0.398600000000     0          
O        O      0.957533333333     0.125800000000     0.375000000000     0          
O        O      0.666666666667     0.173066666667     0.324400000000     0          
O        O      0.957533333333     0.176933333333     0.462900000000     0          
O        O      0.875666666667     0.186033333333     0.240700000000     0          
T        Si     0.666666666667     0.154666666667     0.368200000000     0          
T        Si     0.666666666667     0.199600000000     0.445300000000     0          
T        Si     0.916666666667     0.155866666667     0.250000000000     0          
T        Si     0.666666666667     0.198966666667     0.283800000000     0          
O        O      0.906400000000     0.125800000000     0.287100000000     0          
O        O      0.897300000000     0.207666666667     0.509300000000     0          
O        O      0.666666666667     0.139100000000     0.601400000000     0          
O        O      0.666666666667     0.160266666667     0.675600000000     0          
O        O      0.957533333333     0.156400000000     0.537100000000     0          
O        O      0.875666666667     0.147300000000     0.759300000000     0          
T        Si     0.666666666667     0.178666666667     0.631800000000     0          
T        Si     0.666666666667     0.133733333333     0.554700000000     0          
T        Si     0.666666666667     0.134366666667     0.716200000000     0          
O        O      0.926933333333     0.207533333333     0.787100000000     0          
O        O      0.936033333333     0.125666666667     0.009300000000     0          
O        O      0.833333333333     0.194233333333     0.101400000000     0          
O        O      0.833333333333     0.173066666667     0.175600000000     0          
O        O      0.875800000000     0.176933333333     0.037100000000     0          
O        O      0.957666666667     0.186033333333     0.259300000000     0          
T        Si     0.833333333333     0.154666666667     0.131800000000     0          
T        Si     0.833333333333     0.199600000000     0.054700000000     0          
T        Si     0.833333333333     0.198966666667     0.216200000000     0          
O        O      0.709133333333     0.125800000000     0.375000000000     0          
O        O      0.760266666667     0.125800000000     0.287100000000     0          
O        O      0.769366666667     0.207666666667     0.509300000000     0          
T        Si     0.739200000000     0.166666666667     0.500000000000     0          
O        O      0.790866666667     0.125800000000     0.125000000000     0          
O        O      0.790866666667     0.176933333333     0.037100000000     0          
O        O      0.709000000000     0.186033333333     0.259300000000     0          
T        Si     0.750000000000     0.155866666667     0.250000000000     0          
O        O      0.790866666667     0.207533333333     0.875000000000     0          
O        O      0.739733333333     0.207533333333     0.787100000000     0          
O        O      0.730633333333     0.125666666667     0.009300000000     0          
T        Si     0.760800000000     0.166666666667     0.000000000000     0          
O        O      0.709133333333     0.207533333333     0.625000000000     0          
O        O      0.709133333333     0.156400000000     0.537100000000     0          
O        O      0.791000000000     0.147300000000     0.759300000000     0          
T        Si     0.750000000000     0.177466666667     0.750000000000     0          
O        O      0.760266666667     0.207533333333     0.712900000000     0          
O        O      0.769366666667     0.125666666667     0.490700000000     0          
O        O      0.709133333333     0.176933333333     0.462900000000     0          
O        O      0.791000000000     0.186033333333     0.240700000000     0          
O        O      0.739733333333     0.125800000000     0.212900000000     0          
O        O      0.730633333333     0.207666666667     0.990700000000     0          
O        O      0.790866666667     0.156400000000     0.962900000000     0          
O        O      0.709000000000     0.147300000000     0.740700000000     0          
O        O      0.722433333333     0.416666666667     0.148600000000     0          
O        O      0.790866666667     0.374200000000     0.125000000000     0          
O        O      0.743600000000     0.416666666667     0.074400000000     0          
O        O      0.666666666667     0.416666666667     0.206500000000     0          
O        O      0.739733333333     0.374200000000     0.212900000000     0          
O        O      0.730633333333     0.625666666667     0.990700000000     0          
O        O      0.666666666667     0.416666666667     0.042400000000     0          
T        Si     0.762000000000     0.416666666667     0.118200000000     0          
T        Si     0.717066666667     0.416666666667     0.195300000000     0          
T        Si     0.760800000000     0.333333333333     0.000000000000     0          
T        Si     0.717700000000     0.416666666667     0.033800000000     0          
O        O      0.666666666667     0.639100000000     0.398600000000     0          
O        O      0.709133333333     0.374200000000     0.375000000000     0          
O        O      0.666666666667     0.660266666667     0.324400000000     0          
O        O      0.666666666667     0.583333333333     0.456500000000     0          
O        O      0.709133333333     0.656400000000     0.462900000000     0          
O        O      0.791000000000     0.647300000000     0.240700000000     0          
O        O      0.666666666667     0.583333333333     0.292400000000     0          
T        Si     0.666666666667     0.345333333333     0.368200000000     0          
T        Si     0.666666666667     0.633733333333     0.445300000000     0          
T        Si     0.750000000000     0.344133333333     0.250000000000     0          
T        Si     0.666666666667     0.634366666667     0.283800000000     0          
O        O      0.777566666667     0.583333333333     0.648600000000     0          
O        O      0.709133333333     0.625800000000     0.625000000000     0          
O        O      0.756400000000     0.583333333333     0.574400000000     0          
O        O      0.833333333333     0.583333333333     0.706500000000     0          
O        O      0.760266666667     0.625800000000     0.712900000000     0          
O        O      0.769366666667     0.374333333333     0.490700000000     0          
O        O      0.833333333333     0.583333333333     0.542400000000     0          
T        Si     0.738000000000     0.583333333333     0.618200000000     0          
T        Si     0.782933333333     0.583333333333     0.695300000000     0          
T        Si     0.739200000000     0.333333333333     0.500000000000     0          
T        Si     0.782300000000     0.583333333333     0.533800000000     0          
O        O      0.833333333333     0.360900000000     0.898600000000     0          
O        O      0.790866666667     0.625800000000     0.875000000000     0          
O        O      0.833333333333     0.339733333333     0.824400000000     0          
O        O      0.833333333333     0.416666666667     0.956500000000     0          
O        O      0.790866666667     0.343600000000     0.962900000000     0          
O        O      0.709000000000     0.352700000000     0.740700000000     0          
O        O      0.833333333333     0.416666666667     0.792400000000     0          
T        Si     0.833333333333     0.654666666667     0.868200000000     0          
T        Si     0.833333333333     0.366266666667     0.945300000000     0          
T        Si     0.750000000000     0.655866666667     0.750000000000     0          
T        Si     0.833333333333     0.365633333333     0.783800000000     0          
O        O      0.722433333333     0.583333333333     0.851400000000     0          
O        O      0.743600000000     0.583333333333     0.925600000000     0          
O        O      0.666666666667     0.583333333333     0.793500000000     0          
O        O      0.739733333333     0.625800000000     0.787100000000     0          
O        O      0.730633333333     0.374333333333     0.009300000000     0          
O        O      0.666666666667     0.583333333333     0.957600000000     0          
T        Si     0.762000000000     0.583333333333     0.881800000000     0          
T        Si     0.717066666667     0.583333333333     0.804700000000     0          
T        Si     0.717700000000     0.583333333333     0.966200000000     0          
O        O      0.833333333333     0.639100000000     0.101400000000     0          
O        O      0.833333333333     0.660266666667     0.175600000000     0          
O        O      0.833333333333     0.583333333333     0.043500000000     0          
O        O      0.790866666667     0.656400000000     0.037100000000     0          
O        O      0.709000000000     0.647300000000     0.259300000000     0          
O        O      0.833333333333     0.583333333333     0.207600000000     0          
T        Si     0.833333333333     0.345333333333     0.131800000000     0          
T        Si     0.833333333333     0.633733333333     0.054700000000     0          
T        Si     0.833333333333     0.634366666667     0.216200000000     0          
O        O      0.777566666667     0.416666666667     0.351400000000     0          
O        O      0.756400000000     0.416666666667     0.425600000000     0          
O        O      0.833333333333     0.416666666667     0.293500000000     0          
O        O      0.760266666667     0.374200000000     0.287100000000     0          
O        O      0.769366666667     0.625666666667     0.509300000000     0          
O        O      0.833333333333     0.416666666667     0.457600000000     0          
T        Si     0.738000000000     0.416666666667     0.381800000000     0          
T        Si     0.782933333333     0.416666666667     0.304700000000     0          
T        Si     0.782300000000     0.416666666667     0.466200000000     0          
O        O      0.666666666667     0.360900000000     0.601400000000     0          
O        O      0.666666666667     0.339733333333     0.675600000000     0          
O        O      0.666666666667     0.416666666667     0.543500000000     0          
O        O      0.709133333333     0.343600000000     0.537100000000     0          
O        O      0.791000000000     0.352700000000     0.759300000000     0          
O        O      0.666666666667     0.416666666667     0.707600000000     0          
T        Si     0.666666666667     0.654666666667     0.631800000000     0          
T        Si     0.666666666667     0.366266666667     0.554700000000     0          
T        Si     0.666666666667     0.365633333333     0.716200000000     0          
O        O      0.944233333333     0.583333333333     0.851400000000     0          
O        O      0.875800000000     0.625800000000     0.875000000000     0          
O        O      0.923066666667     0.583333333333     0.925600000000     0          
O        O      0.926933333333     0.625800000000     0.787100000000     0          
O        O      0.936033333333     0.374333333333     0.009300000000     0          
T        Si     0.904666666667     0.583333333333     0.881800000000     0          
T        Si     0.949600000000     0.583333333333     0.804700000000     0          
T        Si     0.905866666667     0.333333333333     0.000000000000     0          
T        Si     0.948966666667     0.583333333333     0.966200000000     0          
O        O      0.957533333333     0.625800000000     0.625000000000     0          
O        O      0.957533333333     0.343600000000     0.537100000000     0          
O        O      0.875666666667     0.352700000000     0.759300000000     0          
T        Si     0.916666666667     0.655866666667     0.750000000000     0          
O        O      0.889100000000     0.416666666667     0.351400000000     0          
O        O      0.957533333333     0.374200000000     0.375000000000     0          
O        O      0.910266666667     0.416666666667     0.425600000000     0          
O        O      0.906400000000     0.374200000000     0.287100000000     0          
O        O      0.897300000000     0.625666666667     0.509300000000     0          
T        Si     0.928666666667     0.416666666667     0.381800000000     0          
T        Si     0.883733333333     0.416666666667     0.304700000000     0          
T        Si     0.927466666667     0.333333333333     0.500000000000     0          
T        Si     0.884366666667     0.416666666667     0.466200000000     0          
O        O      0.875800000000     0.374200000000     0.125000000000     0          
O        O      0.875800000000     0.656400000000     0.037100000000     0          
O        O      0.957666666667     0.647300000000     0.259300000000     0          
T        Si     0.916666666667     0.344133333333     0.250000000000     0          
O        O      0.944233333333     0.416666666667     0.148600000000     0          
O        O      0.923066666667     0.416666666667     0.074400000000     0          
O        O      0.926933333333     0.374200000000     0.212900000000     0          
O        O      0.936033333333     0.625666666667     0.990700000000     0          
T        Si     0.904666666667     0.416666666667     0.118200000000     0          
T        Si     0.949600000000     0.416666666667     0.195300000000     0          
T        Si     0.948966666667     0.416666666667     0.033800000000     0          
O        O      0.875800000000     0.343600000000     0.962900000000     0          
O        O      0.957666666667     0.352700000000     0.740700000000     0          
O        O      0.889100000000     0.583333333333     0.648600000000     0          
O        O      0.910266666667     0.583333333333     0.574400000000     0          
O        O      0.906400000000     0.625800000000     0.712900000000     0          
O        O      0.897300000000     0.374333333333     0.490700000000     0          
T        Si     0.928666666667     0.583333333333     0.618200000000     0          
T        Si     0.883733333333     0.583333333333     0.695300000000     0          
T        Si     0.884366666667     0.583333333333     0.533800000000     0          
O        O      0.957533333333     0.656400000000     0.462900000000     0          
O        O      0.875666666667     0.647300000000     0.240700000000     0          
O        O      0.957533333333     0.540866666667     0.625000000000     0          
O        O      0.906400000000     0.540866666667     0.712900000000     0          
O        O      0.897300000000     0.459000000000     0.490700000000     0          
T        Si     0.927466666667     0.500000000000     0.500000000000     0          
O        O      0.833333333333     0.472433333333     0.898600000000     0          
O        O      0.875800000000     0.540866666667     0.875000000000     0          
O        O      0.833333333333     0.493600000000     0.824400000000     0          
O        O      0.875800000000     0.489733333333     0.962900000000     0          
O        O      0.957666666667     0.480633333333     0.740700000000     0          
T        Si     0.833333333333     0.512000000000     0.868200000000     0          
T        Si     0.833333333333     0.467066666667     0.945300000000     0          
T        Si     0.916666666667     0.510800000000     0.750000000000     0          
T        Si     0.833333333333     0.467700000000     0.783800000000     0          
O        O      0.875800000000     0.459133333333     0.125000000000     0          
O        O      0.926933333333     0.459133333333     0.212900000000     0          
O        O      0.936033333333     0.541000000000     0.990700000000     0          
T        Si     0.905866666667     0.500000000000     0.000000000000     0          
O        O      0.666666666667     0.527566666667     0.398600000000     0          
O        O      0.957533333333     0.459133333333     0.375000000000     0          
O        O      0.666666666667     0.506400000000     0.324400000000     0          
O        O      0.957533333333     0.510266666667     0.462900000000     0          
O        O      0.875666666667     0.519366666667     0.240700000000     0          
T        Si     0.666666666667     0.488000000000     0.368200000000     0          
T        Si     0.666666666667     0.532933333333     0.445300000000     0          
T        Si     0.916666666667     0.489200000000     0.250000000000     0          
T        Si     0.666666666667     0.532300000000     0.283800000000     0          
O        O      0.906400000000     0.459133333333     0.287100000000     0          
O        O      0.897300000000     0.541000000000     0.509300000000     0          
O        O      0.666666666667     0.472433333333     0.601400000000     0          
O        O      0.666666666667     0.493600000000     0.675600000000     0          
O        O      0.957533333333     0.489733333333     0.537100000000     0          
O        O      0.875666666667     0.480633333333     0.759300000000     0          
T        Si     0.666666666667     0.512000000000     0.631800000000     0          
T        Si     0.666666666667     0.467066666667     0.554700000000     0          
T        Si     0.666666666667     0.467700000000     0.716200000000     0          
O        O      0.926933333333     0.540866666667     0.787100000000     0          
O        O      0.936033333333     0.459000000000     0.009300000000     0          
O        O      0.833333333333     0.527566666667     0.101400000000     0          
O        O      0.833333333333     0.506400000000     0.175600000000     0          
O        O      0.875800000000     0.510266666667     0.037100000000     0          
O        O      0.957666666667     0.519366666667     0.259300000000     0          
T        Si     0.833333333333     0.488000000000     0.131800000000     0          
T        Si     0.833333333333     0.532933333333     0.054700000000     0          
T        Si     0.833333333333     0.532300000000     0.216200000000     0          
O        O      0.709133333333     0.459133333333     0.375000000000     0          
O        O      0.760266666667     0.459133333333     0.287100000000     0          
O        O      0.769366666667     0.541000000000     0.509300000000     0          
T        Si     0.739200000000     0.500000000000     0.500000000000     0          
O        O      0.790866666667     0.459133333333     0.125000000000     0          
O        O      0.790866666667     0.510266666667     0.037100000000     0          
O        O      0.709000000000     0.519366666667     0.259300000000     0          
T        Si     0.750000000000     0.489200000000     0.250000000000     0          
O        O      0.790866666667     0.540866666667     0.875000000000     0          
O        O      0.739733333333     0.540866666667     0.787100000000     0          
O        O      0.730633333333     0.459000000000     0.009300000000     0          
T        Si     0.760800000000     0.500000000000     0.000000000000     0          
O        O      0.709133333333     0.540866666667     0.625000000000     0          
O        O      0.709133333333     0.489733333333     0.537100000000     0          
O        O      0.791000000000     0.480633333333     0.759300000000     0          
T        Si     0.750000000000     0.510800000000     0.750000000000     0          
O        O      0.760266666667     0.540866666667     0.712900000000     0          
O        O      0.769366666667     0.459000000000     0.490700000000     0          
O        O      0.709133333333     0.510266666667     0.462900000000     0          
O        O      0.791000000000     0.519366666667     0.240700000000     0          
O        O      0.739733333333     0.459133333333     0.212900000000     0          
O        O      0.730633333333     0.541000000000     0.990700000000     0          
O        O      0.790866666667     0.489733333333     0.962900000000     0          
O        O      0.709000000000     0.480633333333     0.740700000000     0          
O        O      0.722433333333     0.750000000000     0.148600000000     0          
O        O      0.790866666667     0.707533333333     0.125000000000     0          
O        O      0.743600000000     0.750000000000     0.074400000000     0          
O        O      0.666666666667     0.750000000000     0.206500000000     0          
O        O      0.739733333333     0.707533333333     0.212900000000     0          
O        O      0.730633333333     0.959000000000     0.990700000000     0          
O        O      0.666666666667     0.750000000000     0.042400000000     0          
T        Si     0.762000000000     0.750000000000     0.118200000000     0          
T        Si     0.717066666667     0.750000000000     0.195300000000     0          
T        Si     0.760800000000     0.666666666667     0.000000000000     0          
T        Si     0.717700000000     0.750000000000     0.033800000000     0          
O        O      0.666666666667     0.972433333333     0.398600000000     0          
O        O      0.709133333333     0.707533333333     0.375000000000     0          
O        O      0.666666666667     0.993600000000     0.324400000000     0          
O        O      0.666666666667     0.916666666667     0.456500000000     0          
O        O      0.709133333333     0.989733333333     0.462900000000     0          
O        O      0.791000000000     0.980633333333     0.240700000000     0          
O        O      0.666666666667     0.916666666667     0.292400000000     0          
T        Si     0.666666666667     0.678666666667     0.368200000000     0          
T        Si     0.666666666667     0.967066666667     0.445300000000     0          
T        Si     0.750000000000     0.677466666667     0.250000000000     0          
T        Si     0.666666666667     0.967700000000     0.283800000000     0          
O        O      0.777566666667     0.916666666667     0.648600000000     0          
O        O      0.709133333333     0.959133333333     0.625000000000     0          
O        O      0.756400000000     0.916666666667     0.574400000000     0          
O        O      0.833333333333     0.916666666667     0.706500000000     0          
O        O      0.760266666667     0.959133333333     0.712900000000     0          
O        O      0.769366666667     0.707666666667     0.490700000000     0          
O        O      0.833333333333     0.916666666667     0.542400000000     0          
T        Si     0.738000000000     0.916666666667     0.618200000000     0          
T        Si     0.782933333333     0.916666666667     0.695300000000     0          
T        Si     0.739200000000     0.666666666667     0.500000000000     0          
T        Si     0.782300000000     0.916666666667     0.533800000000     0          
O        O      0.833333333333     0.694233333333     0.898600000000     0          
O        O      0.790866666667     0.959133333333     0.875000000000     0          
O        O      0.833333333333     0.673066666667     0.824400000000     0          
O        O      0.833333333333     0.750000000000     0.956500000000     0          
O        O      0.790866666667     0.676933333333     0.962900000000     0          
O        O      0.709000000000     0.686033333333     0.740700000000     0          
O        O      0.833333333333     0.750000000000     0.792400000000     0          
T        Si     0.833333333333     0.988000000000     0.868200000000     0          
T        Si     0.833333333333     0.699600000000     0.945300000000     0          
T        Si     0.750000000000     0.989200000000     0.750000000000     0          
T        Si     0.833333333333     0.698966666667     0.783800000000     0          
O        O      0.722433333333     0.916666666667     0.851400000000     0          
O        O      0.743600000000     0.916666666667     0.925600000000     0          
O        O      0.666666666667     0.916666666667     0.793500000000     0          
O        O      0.739733333333     0.959133333333     0.787100000000     0          
O        O      0.730633333333     0.707666666667     0.009300000000     0          
O        O      0.666666666667     0.916666666667     0.957600000000     0          
T        Si     0.762000000000     0.916666666667     0.881800000000     0          
T        Si     0.717066666667     0.916666666667     0.804700000000     0          
T        Si     0.717700000000     0.916666666667     0.966200000000     0          
O        O      0.833333333333     0.972433333333     0.101400000000     0          
O        O      0.833333333333     0.993600000000     0.175600000000     0          
O        O      0.833333333333     0.916666666667     0.043500000000     0          
O        O      0.790866666667     0.989733333333     0.037100000000     0          
O        O      0.709000000000     0.980633333333     0.259300000000     0          
O        O      0.833333333333     0.916666666667     0.207600000000     0          
T        Si     0.833333333333     0.678666666667     0.131800000000     0          
T        Si     0.833333333333     0.967066666667     0.054700000000     0          
T        Si     0.833333333333     0.967700000000     0.216200000000     0          
O        O      0.777566666667     0.750000000000     0.351400000000     0          
O        O      0.756400000000     0.750000000000     0.425600000000     0          
O        O      0.833333333333     0.750000000000     0.293500000000     0          
O        O      0.760266666667     0.707533333333     0.287100000000     0          
O        O      0.769366666667     0.959000000000     0.509300000000     0          
O        O      0.833333333333     0.750000000000     0.457600000000     0          
T        Si     0.738000000000     0.750000000000     0.381800000000     0          
T        Si     0.782933333333     0.750000000000     0.304700000000     0          
T        Si     0.782300000000     0.750000000000     0.466200000000     0          
O        O      0.666666666667     0.694233333333     0.601400000000     0          
O        O      0.666666666667     0.673066666667     0.675600000000     0          
O        O      0.666666666667     0.750000000000     0.543500000000     0          
O        O      0.709133333333     0.676933333333     0.537100000000     0          
O        O      0.791000000000     0.686033333333     0.759300000000     0          
O        O      0.666666666667     0.750000000000     0.707600000000     0          
T        Si     0.666666666667     0.988000000000     0.631800000000     0          
T        Si     0.666666666667     0.699600000000     0.554700000000     0          
T        Si     0.666666666667     0.698966666667     0.716200000000     0          
O        O      0.944233333333     0.916666666667     0.851400000000     0          
O        O      0.875800000000     0.959133333333     0.875000000000     0          
O        O      0.923066666667     0.916666666667     0.925600000000     0          
O        O      0.926933333333     0.959133333333     0.787100000000     0          
O        O      0.936033333333     0.707666666667     0.009300000000     0          
T        Si     0.904666666667     0.916666666667     0.881800000000     0          
T        Si     0.949600000000     0.916666666667     0.804700000000     0          
T        Si     0.905866666667     0.666666666667     0.000000000000     0          
T        Si     0.948966666667     0.916666666667     0.966200000000     0          
O        O      0.957533333333     0.959133333333     0.625000000000     0          
O        O      0.957533333333     0.676933333333     0.537100000000     0          
O        O      0.875666666667     0.686033333333     0.759300000000     0          
T        Si     0.916666666667     0.989200000000     0.750000000000     0          
O        O      0.889100000000     0.750000000000     0.351400000000     0          
O        O      0.957533333333     0.707533333333     0.375000000000     0          
O        O      0.910266666667     0.750000000000     0.425600000000     0          
O        O      0.906400000000     0.707533333333     0.287100000000     0          
O        O      0.897300000000     0.959000000000     0.509300000000     0          
T        Si     0.928666666667     0.750000000000     0.381800000000     0          
T        Si     0.883733333333     0.750000000000     0.304700000000     0          
T        Si     0.927466666667     0.666666666667     0.500000000000     0          
T        Si     0.884366666667     0.750000000000     0.466200000000     0          
O        O      0.875800000000     0.707533333333     0.125000000000     0          
O        O      0.875800000000     0.989733333333     0.037100000000     0          
O        O      0.957666666667     0.980633333333     0.259300000000     0          
T        Si     0.916666666667     0.677466666667     0.250000000000     0          
O        O      0.944233333333     0.750000000000     0.148600000000     0          
O        O      0.923066666667     0.750000000000     0.074400000000     0          
O        O      0.926933333333     0.707533333333     0.212900000000     0          
O        O      0.936033333333     0.959000000000     0.990700000000     0          
T        Si     0.904666666667     0.750000000000     0.118200000000     0          
T        Si     0.949600000000     0.750000000000     0.195300000000     0          
T        Si     0.948966666667     0.750000000000     0.033800000000     0          
O        O      0.875800000000     0.676933333333     0.962900000000     0          
O        O      0.957666666667     0.686033333333     0.740700000000     0          
O        O      0.889100000000     0.916666666667     0.648600000000     0          
O        O      0.910266666667     0.916666666667     0.574400000000     0          
O        O      0.906400000000     0.959133333333     0.712900000000     0          
O        O      0.897300000000     0.707666666667     0.490700000000     0          
T        Si     0.928666666667     0.916666666667     0.618200000000     0          
T        Si     0.883733333333     0.916666666667     0.695300000000     0          
T        Si     0.884366666667     0.916666666667     0.533800000000     0          
O        O      0.957533333333     0.989733333333     0.462900000000     0          
O        O      0.875666666667     0.980633333333     0.240700000000     0          
O        O      0.957533333333     0.874200000000     0.625000000000     0          
O        O      0.906400000000     0.874200000000     0.712900000000     0          
O        O      0.897300000000     0.792333333333     0.490700000000     0          
T        Si     0.927466666667     0.833333333333     0.500000000000     0          
O        O      0.833333333333     0.805766666667     0.898600000000     0          
O        O      0.875800000000     0.874200000000     0.875000000000     0          
O        O      0.833333333333     0.826933333333     0.824400000000     0          
O        O      0.875800000000     0.823066666667     0.962900000000     0          
O        O      0.957666666667     0.813966666667     0.740700000000     0          
T        Si     0.833333333333     0.845333333333     0.868200000000     0          
T        Si     0.833333333333     0.800400000000     0.945300000000     0          
T        Si     0.916666666667     0.844133333333     0.750000000000     0          
T        Si     0.833333333333     0.801033333333     0.783800000000     0          
O        O      0.875800000000     0.792466666667     0.125000000000     0          
O        O      0.926933333333     0.792466666667     0.212900000000     0          
O        O      0.936033333333     0.874333333333     0.990700000000     0          
T        Si     0.905866666667     0.833333333333     0.000000000000     0          
O        O      0.666666666667     0.860900000000     0.398600000000     0          
O        O      0.957533333333     0.792466666667     0.375000000000     0          
O        O      0.666666666667     0.839733333333     0.324400000000     0          
O        O      0.957533333333     0.843600000000     0.462900000000     0          
O        O      0.875666666667     0.852700000000     0.240700000000     0          
T        Si     0.666666666667     0.821333333333     0.368200000000     0          
T        Si     0.666666666667     0.866266666667     0.445300000000     0          
T        Si     0.916666666667     0.822533333333     0.250000000000     0          
T        Si     0.666666666667     0.865633333333     0.283800000000     0          
O        O      0.906400000000     0.792466666667     0.287100000000     0          
O        O      0.897300000000     0.874333333333     0.509300000000     0          
O        O      0.666666666667     0.805766666667     0.601400000000     0          
O        O      0.666666666667     0.826933333333     0.675600000000     0          
O        O      0.957533333333     0.823066666667     0.537100000000     0          
O        O      0.875666666667     0.813966666667     0.759300000000     0          
T        Si     0.666666666667     0.845333333333     0.631800000000     0          
T        Si     0.666666666667     0.800400000000     0.554700000000     0          
T        Si     0.666666666667     0.801033333333     0.716200000000     0          
O        O      0.926933333333     0.874200000000     0.787100000000     0          
O        O      0.936033333333     0.792333333333     0.009300000000     0          
O        O      0.833333333333     0.860900000000     0.101400000000     0          
O        O      0.833333333333     0.839733333333     0.175600000000     0          
O        O      0.875800000000     0.843600000000     0.037100000000     0          
O        O      0.957666666667     0.852700000000     0.259300000000     0          
T        Si     0.833333333333     0.821333333333     0.131800000000     0          
T        Si     0.833333333333     0.866266666667     0.054700000000     0          
T        Si     0.833333333333     0.865633333333     0.216200000000     0          
O        O      0.709133333333     0.792466666667     0.375000000000     0          
O        O      0.760266666667     0.792466666667     0.287100000000     0          
O        O      0.769366666667     0.874333333333     0.509300000000     0          
T        Si     0.739200000000     0.833333333333     0.500000000000     0          
O        O      0.790866666667     0.792466666667     0.125000000000     0          
O        O      0.790866666667     0.843600000000     0.037100000000     0          
O        O      0.709000000000     0.852700000000     0.259300000000     0          
T        Si     0.750000000000     0.822533333333     0.250000000000     0          
O        O      0.790866666667     0.874200000000     0.875000000000     0          
O        O      0.739733333333     0.874200000000     0.787100000000     0          
O        O      0.730633333333     0.792333333333     0.009300000000     0          
T        Si     0.760800000000     0.833333333333     0.000000000000     0          
O        O      0.709133333333     0.874200000000     0.625000000000     0          
O        O      0.709133333333     0.823066666667     0.537100000000     0          
O        O      0.791000000000     0.813966666667     0.759300000000     0          
T        Si     0.750000000000     0.844133333333     0.750000000000     0          
O        O      0.760266666667     0.874200000000     0.712900000000     0          
O        O      0.769366666667     0.792333333333     0.490700000000     0          
O        O      0.709133333333     0.843600000000     0.462900000000     0          
O        O      0.791000000000     0.852700000000     0.240700000000     0          
O        O      0.739733333333     0.792466666667     0.212900000000     0          
O        O      0.730633333333     0.874333333333     0.990700000000     0          
O        O      0.790866666667     0.823066666667     0.962900000000     0          
O        O      0.709000000000     0.813966666667     0.740700000000     0          


