data_zeolite

_audit_creation_method RASPA-1.0
_audit_creation_date 2021-6-7
_audit_author_name ''

_cell_length_a    35.524
_cell_length_b    35.524
_cell_length_c    35.524
_cell_angle_alpha 90
_cell_angle_beta  90
_cell_angle_gamma 90
_cell_volume      44829.7

_symmetry_cell_setting          cubic
_symmetry_space_group_name_Hall 'P 1'
_symmetry_space_group_name_H-M  'P 1'
_symmetry_Int_Tables_number     1

_symmetry_equiv_pos_as_xyz 'x,y,z'

loop_
_atom_site_label
_atom_site_type_symbol
_atom_site_fract_x
_atom_site_fract_y
_atom_site_fract_z
_atom_site_charge
O        O      0.071450000000     0.071450000000     0.225450000000     0          
O        O      0.022700000000     0.125000000000     0.203500000000     0          
O        O      0.000000000000     0.074750000000     0.250000000000     0          
T        Si     0.037000000000     0.098100000000     0.237300000000     0          
O        O      0.071450000000     0.428550000000     0.274550000000     0          
O        O      0.125000000000     0.477300000000     0.296500000000     0          
O        O      0.074750000000     0.000000000000     0.250000000000     0          
T        Si     0.098100000000     0.463000000000     0.262700000000     0          
O        O      0.428550000000     0.428550000000     0.225450000000     0          
O        O      0.477300000000     0.375000000000     0.203500000000     0          
O        O      0.000000000000     0.425250000000     0.250000000000     0          
T        Si     0.463000000000     0.401900000000     0.237300000000     0          
O        O      0.428550000000     0.071450000000     0.274550000000     0          
O        O      0.375000000000     0.022700000000     0.296500000000     0          
O        O      0.425250000000     0.000000000000     0.250000000000     0          
T        Si     0.401900000000     0.037000000000     0.262700000000     0          
O        O      0.022700000000     0.375000000000     0.296500000000     0          
T        Si     0.037000000000     0.401900000000     0.262700000000     0          
O        O      0.375000000000     0.477300000000     0.203500000000     0          
T        Si     0.401900000000     0.463000000000     0.237300000000     0          
O        O      0.477300000000     0.125000000000     0.296500000000     0          
T        Si     0.463000000000     0.098100000000     0.262700000000     0          
O        O      0.125000000000     0.022700000000     0.203500000000     0          
T        Si     0.098100000000     0.037000000000     0.237300000000     0          
O        O      0.225450000000     0.071450000000     0.071450000000     0          
O        O      0.203500000000     0.022700000000     0.125000000000     0          
O        O      0.250000000000     0.000000000000     0.074750000000     0          
T        Si     0.237300000000     0.037000000000     0.098100000000     0          
O        O      0.071450000000     0.274550000000     0.428550000000     0          
O        O      0.022700000000     0.296500000000     0.375000000000     0          
O        O      0.000000000000     0.250000000000     0.425250000000     0          
T        Si     0.037000000000     0.262700000000     0.401900000000     0          
O        O      0.274550000000     0.428550000000     0.071450000000     0          
O        O      0.296500000000     0.477300000000     0.125000000000     0          
T        Si     0.262700000000     0.463000000000     0.098100000000     0          
O        O      0.428550000000     0.225450000000     0.428550000000     0          
O        O      0.477300000000     0.203500000000     0.375000000000     0          
T        Si     0.463000000000     0.237300000000     0.401900000000     0          
O        O      0.225450000000     0.428550000000     0.428550000000     0          
O        O      0.203500000000     0.477300000000     0.375000000000     0          
O        O      0.250000000000     0.000000000000     0.425250000000     0          
T        Si     0.237300000000     0.463000000000     0.401900000000     0          
O        O      0.428550000000     0.274550000000     0.071450000000     0          
O        O      0.477300000000     0.296500000000     0.125000000000     0          
O        O      0.000000000000     0.250000000000     0.074750000000     0          
T        Si     0.463000000000     0.262700000000     0.098100000000     0          
O        O      0.274550000000     0.071450000000     0.428550000000     0          
O        O      0.296500000000     0.022700000000     0.375000000000     0          
T        Si     0.262700000000     0.037000000000     0.401900000000     0          
O        O      0.071450000000     0.225450000000     0.071450000000     0          
O        O      0.022700000000     0.203500000000     0.125000000000     0          
T        Si     0.037000000000     0.237300000000     0.098100000000     0          
O        O      0.125000000000     0.203500000000     0.022700000000     0          
O        O      0.074750000000     0.250000000000     0.000000000000     0          
T        Si     0.098100000000     0.237300000000     0.037000000000     0          
O        O      0.125000000000     0.296500000000     0.477300000000     0          
T        Si     0.098100000000     0.262700000000     0.463000000000     0          
O        O      0.296500000000     0.375000000000     0.022700000000     0          
O        O      0.250000000000     0.425250000000     0.000000000000     0          
T        Si     0.262700000000     0.401900000000     0.037000000000     0          
O        O      0.375000000000     0.203500000000     0.477300000000     0          
O        O      0.425250000000     0.250000000000     0.000000000000     0          
T        Si     0.401900000000     0.237300000000     0.463000000000     0          
O        O      0.203500000000     0.125000000000     0.022700000000     0          
O        O      0.250000000000     0.074750000000     0.000000000000     0          
T        Si     0.237300000000     0.098100000000     0.037000000000     0          
O        O      0.375000000000     0.296500000000     0.022700000000     0          
T        Si     0.401900000000     0.262700000000     0.037000000000     0          
O        O      0.296500000000     0.125000000000     0.477300000000     0          
T        Si     0.262700000000     0.098100000000     0.463000000000     0          
O        O      0.203500000000     0.375000000000     0.477300000000     0          
T        Si     0.237300000000     0.401900000000     0.463000000000     0          
O        O      0.321450000000     0.321450000000     0.475450000000     0          
O        O      0.272700000000     0.375000000000     0.453500000000     0          
O        O      0.250000000000     0.324750000000     0.000000000000     0          
T        Si     0.287000000000     0.348100000000     0.487300000000     0          
O        O      0.321450000000     0.178550000000     0.024550000000     0          
O        O      0.375000000000     0.227300000000     0.046500000000     0          
O        O      0.324750000000     0.250000000000     0.000000000000     0          
T        Si     0.348100000000     0.213000000000     0.012700000000     0          
O        O      0.178550000000     0.178550000000     0.475450000000     0          
O        O      0.227300000000     0.125000000000     0.453500000000     0          
O        O      0.250000000000     0.175250000000     0.000000000000     0          
T        Si     0.213000000000     0.151900000000     0.487300000000     0          
O        O      0.178550000000     0.321450000000     0.024550000000     0          
O        O      0.125000000000     0.272700000000     0.046500000000     0          
O        O      0.175250000000     0.250000000000     0.000000000000     0          
T        Si     0.151900000000     0.287000000000     0.012700000000     0          
O        O      0.272700000000     0.125000000000     0.046500000000     0          
T        Si     0.287000000000     0.151900000000     0.012700000000     0          
O        O      0.125000000000     0.227300000000     0.453500000000     0          
T        Si     0.151900000000     0.213000000000     0.487300000000     0          
O        O      0.227300000000     0.375000000000     0.046500000000     0          
T        Si     0.213000000000     0.348100000000     0.012700000000     0          
O        O      0.375000000000     0.272700000000     0.453500000000     0          
T        Si     0.348100000000     0.287000000000     0.487300000000     0          
O        O      0.475450000000     0.321450000000     0.321450000000     0          
O        O      0.453500000000     0.272700000000     0.375000000000     0          
O        O      0.000000000000     0.250000000000     0.324750000000     0          
T        Si     0.487300000000     0.287000000000     0.348100000000     0          
O        O      0.321450000000     0.024550000000     0.178550000000     0          
O        O      0.272700000000     0.046500000000     0.125000000000     0          
O        O      0.250000000000     0.000000000000     0.175250000000     0          
T        Si     0.287000000000     0.012700000000     0.151900000000     0          
O        O      0.024550000000     0.178550000000     0.321450000000     0          
O        O      0.046500000000     0.227300000000     0.375000000000     0          
T        Si     0.012700000000     0.213000000000     0.348100000000     0          
O        O      0.178550000000     0.475450000000     0.178550000000     0          
O        O      0.227300000000     0.453500000000     0.125000000000     0          
T        Si     0.213000000000     0.487300000000     0.151900000000     0          
O        O      0.475450000000     0.178550000000     0.178550000000     0          
O        O      0.453500000000     0.227300000000     0.125000000000     0          
O        O      0.000000000000     0.250000000000     0.175250000000     0          
T        Si     0.487300000000     0.213000000000     0.151900000000     0          
O        O      0.178550000000     0.024550000000     0.321450000000     0          
O        O      0.227300000000     0.046500000000     0.375000000000     0          
O        O      0.250000000000     0.000000000000     0.324750000000     0          
T        Si     0.213000000000     0.012700000000     0.348100000000     0          
O        O      0.024550000000     0.321450000000     0.178550000000     0          
O        O      0.046500000000     0.272700000000     0.125000000000     0          
T        Si     0.012700000000     0.287000000000     0.151900000000     0          
O        O      0.321450000000     0.475450000000     0.321450000000     0          
O        O      0.272700000000     0.453500000000     0.375000000000     0          
T        Si     0.287000000000     0.487300000000     0.348100000000     0          
O        O      0.375000000000     0.453500000000     0.272700000000     0          
O        O      0.324750000000     0.000000000000     0.250000000000     0          
T        Si     0.348100000000     0.487300000000     0.287000000000     0          
O        O      0.375000000000     0.046500000000     0.227300000000     0          
T        Si     0.348100000000     0.012700000000     0.213000000000     0          
O        O      0.046500000000     0.125000000000     0.272700000000     0          
O        O      0.000000000000     0.175250000000     0.250000000000     0          
T        Si     0.012700000000     0.151900000000     0.287000000000     0          
O        O      0.125000000000     0.453500000000     0.227300000000     0          
O        O      0.175250000000     0.000000000000     0.250000000000     0          
T        Si     0.151900000000     0.487300000000     0.213000000000     0          
O        O      0.453500000000     0.375000000000     0.272700000000     0          
O        O      0.000000000000     0.324750000000     0.250000000000     0          
T        Si     0.487300000000     0.348100000000     0.287000000000     0          
O        O      0.125000000000     0.046500000000     0.272700000000     0          
T        Si     0.151900000000     0.012700000000     0.287000000000     0          
O        O      0.046500000000     0.375000000000     0.227300000000     0          
T        Si     0.012700000000     0.348100000000     0.213000000000     0          
O        O      0.453500000000     0.125000000000     0.227300000000     0          
T        Si     0.487300000000     0.151900000000     0.213000000000     0          
O        O      0.071450000000     0.071450000000     0.725450000000     0          
O        O      0.022700000000     0.125000000000     0.703500000000     0          
O        O      0.000000000000     0.074750000000     0.750000000000     0          
T        Si     0.037000000000     0.098100000000     0.737300000000     0          
O        O      0.071450000000     0.428550000000     0.774550000000     0          
O        O      0.125000000000     0.477300000000     0.796500000000     0          
O        O      0.074750000000     0.000000000000     0.750000000000     0          
T        Si     0.098100000000     0.463000000000     0.762700000000     0          
O        O      0.428550000000     0.428550000000     0.725450000000     0          
O        O      0.477300000000     0.375000000000     0.703500000000     0          
O        O      0.000000000000     0.425250000000     0.750000000000     0          
T        Si     0.463000000000     0.401900000000     0.737300000000     0          
O        O      0.428550000000     0.071450000000     0.774550000000     0          
O        O      0.375000000000     0.022700000000     0.796500000000     0          
O        O      0.425250000000     0.000000000000     0.750000000000     0          
T        Si     0.401900000000     0.037000000000     0.762700000000     0          
O        O      0.022700000000     0.375000000000     0.796500000000     0          
T        Si     0.037000000000     0.401900000000     0.762700000000     0          
O        O      0.375000000000     0.477300000000     0.703500000000     0          
T        Si     0.401900000000     0.463000000000     0.737300000000     0          
O        O      0.477300000000     0.125000000000     0.796500000000     0          
T        Si     0.463000000000     0.098100000000     0.762700000000     0          
O        O      0.125000000000     0.022700000000     0.703500000000     0          
T        Si     0.098100000000     0.037000000000     0.737300000000     0          
O        O      0.225450000000     0.071450000000     0.571450000000     0          
O        O      0.203500000000     0.022700000000     0.625000000000     0          
O        O      0.250000000000     0.000000000000     0.574750000000     0          
T        Si     0.237300000000     0.037000000000     0.598100000000     0          
O        O      0.071450000000     0.274550000000     0.928550000000     0          
O        O      0.022700000000     0.296500000000     0.875000000000     0          
O        O      0.000000000000     0.250000000000     0.925250000000     0          
T        Si     0.037000000000     0.262700000000     0.901900000000     0          
O        O      0.274550000000     0.428550000000     0.571450000000     0          
O        O      0.296500000000     0.477300000000     0.625000000000     0          
T        Si     0.262700000000     0.463000000000     0.598100000000     0          
O        O      0.428550000000     0.225450000000     0.928550000000     0          
O        O      0.477300000000     0.203500000000     0.875000000000     0          
T        Si     0.463000000000     0.237300000000     0.901900000000     0          
O        O      0.225450000000     0.428550000000     0.928550000000     0          
O        O      0.203500000000     0.477300000000     0.875000000000     0          
O        O      0.250000000000     0.000000000000     0.925250000000     0          
T        Si     0.237300000000     0.463000000000     0.901900000000     0          
O        O      0.428550000000     0.274550000000     0.571450000000     0          
O        O      0.477300000000     0.296500000000     0.625000000000     0          
O        O      0.000000000000     0.250000000000     0.574750000000     0          
T        Si     0.463000000000     0.262700000000     0.598100000000     0          
O        O      0.274550000000     0.071450000000     0.928550000000     0          
O        O      0.296500000000     0.022700000000     0.875000000000     0          
T        Si     0.262700000000     0.037000000000     0.901900000000     0          
O        O      0.071450000000     0.225450000000     0.571450000000     0          
O        O      0.022700000000     0.203500000000     0.625000000000     0          
T        Si     0.037000000000     0.237300000000     0.598100000000     0          
O        O      0.125000000000     0.203500000000     0.522700000000     0          
O        O      0.074750000000     0.250000000000     0.500000000000     0          
T        Si     0.098100000000     0.237300000000     0.537000000000     0          
O        O      0.125000000000     0.296500000000     0.977300000000     0          
T        Si     0.098100000000     0.262700000000     0.963000000000     0          
O        O      0.296500000000     0.375000000000     0.522700000000     0          
O        O      0.250000000000     0.425250000000     0.500000000000     0          
T        Si     0.262700000000     0.401900000000     0.537000000000     0          
O        O      0.375000000000     0.203500000000     0.977300000000     0          
O        O      0.425250000000     0.250000000000     0.500000000000     0          
T        Si     0.401900000000     0.237300000000     0.963000000000     0          
O        O      0.203500000000     0.125000000000     0.522700000000     0          
O        O      0.250000000000     0.074750000000     0.500000000000     0          
T        Si     0.237300000000     0.098100000000     0.537000000000     0          
O        O      0.375000000000     0.296500000000     0.522700000000     0          
T        Si     0.401900000000     0.262700000000     0.537000000000     0          
O        O      0.296500000000     0.125000000000     0.977300000000     0          
T        Si     0.262700000000     0.098100000000     0.963000000000     0          
O        O      0.203500000000     0.375000000000     0.977300000000     0          
T        Si     0.237300000000     0.401900000000     0.963000000000     0          
O        O      0.321450000000     0.321450000000     0.975450000000     0          
O        O      0.272700000000     0.375000000000     0.953500000000     0          
O        O      0.250000000000     0.324750000000     0.500000000000     0          
T        Si     0.287000000000     0.348100000000     0.987300000000     0          
O        O      0.321450000000     0.178550000000     0.524550000000     0          
O        O      0.375000000000     0.227300000000     0.546500000000     0          
O        O      0.324750000000     0.250000000000     0.500000000000     0          
T        Si     0.348100000000     0.213000000000     0.512700000000     0          
O        O      0.178550000000     0.178550000000     0.975450000000     0          
O        O      0.227300000000     0.125000000000     0.953500000000     0          
O        O      0.250000000000     0.175250000000     0.500000000000     0          
T        Si     0.213000000000     0.151900000000     0.987300000000     0          
O        O      0.178550000000     0.321450000000     0.524550000000     0          
O        O      0.125000000000     0.272700000000     0.546500000000     0          
O        O      0.175250000000     0.250000000000     0.500000000000     0          
T        Si     0.151900000000     0.287000000000     0.512700000000     0          
O        O      0.272700000000     0.125000000000     0.546500000000     0          
T        Si     0.287000000000     0.151900000000     0.512700000000     0          
O        O      0.125000000000     0.227300000000     0.953500000000     0          
T        Si     0.151900000000     0.213000000000     0.987300000000     0          
O        O      0.227300000000     0.375000000000     0.546500000000     0          
T        Si     0.213000000000     0.348100000000     0.512700000000     0          
O        O      0.375000000000     0.272700000000     0.953500000000     0          
T        Si     0.348100000000     0.287000000000     0.987300000000     0          
O        O      0.475450000000     0.321450000000     0.821450000000     0          
O        O      0.453500000000     0.272700000000     0.875000000000     0          
O        O      0.000000000000     0.250000000000     0.824750000000     0          
T        Si     0.487300000000     0.287000000000     0.848100000000     0          
O        O      0.321450000000     0.024550000000     0.678550000000     0          
O        O      0.272700000000     0.046500000000     0.625000000000     0          
O        O      0.250000000000     0.000000000000     0.675250000000     0          
T        Si     0.287000000000     0.012700000000     0.651900000000     0          
O        O      0.024550000000     0.178550000000     0.821450000000     0          
O        O      0.046500000000     0.227300000000     0.875000000000     0          
T        Si     0.012700000000     0.213000000000     0.848100000000     0          
O        O      0.178550000000     0.475450000000     0.678550000000     0          
O        O      0.227300000000     0.453500000000     0.625000000000     0          
T        Si     0.213000000000     0.487300000000     0.651900000000     0          
O        O      0.475450000000     0.178550000000     0.678550000000     0          
O        O      0.453500000000     0.227300000000     0.625000000000     0          
O        O      0.000000000000     0.250000000000     0.675250000000     0          
T        Si     0.487300000000     0.213000000000     0.651900000000     0          
O        O      0.178550000000     0.024550000000     0.821450000000     0          
O        O      0.227300000000     0.046500000000     0.875000000000     0          
O        O      0.250000000000     0.000000000000     0.824750000000     0          
T        Si     0.213000000000     0.012700000000     0.848100000000     0          
O        O      0.024550000000     0.321450000000     0.678550000000     0          
O        O      0.046500000000     0.272700000000     0.625000000000     0          
T        Si     0.012700000000     0.287000000000     0.651900000000     0          
O        O      0.321450000000     0.475450000000     0.821450000000     0          
O        O      0.272700000000     0.453500000000     0.875000000000     0          
T        Si     0.287000000000     0.487300000000     0.848100000000     0          
O        O      0.375000000000     0.453500000000     0.772700000000     0          
O        O      0.324750000000     0.000000000000     0.750000000000     0          
T        Si     0.348100000000     0.487300000000     0.787000000000     0          
O        O      0.375000000000     0.046500000000     0.727300000000     0          
T        Si     0.348100000000     0.012700000000     0.713000000000     0          
O        O      0.046500000000     0.125000000000     0.772700000000     0          
O        O      0.000000000000     0.175250000000     0.750000000000     0          
T        Si     0.012700000000     0.151900000000     0.787000000000     0          
O        O      0.125000000000     0.453500000000     0.727300000000     0          
O        O      0.175250000000     0.000000000000     0.750000000000     0          
T        Si     0.151900000000     0.487300000000     0.713000000000     0          
O        O      0.453500000000     0.375000000000     0.772700000000     0          
O        O      0.000000000000     0.324750000000     0.750000000000     0          
T        Si     0.487300000000     0.348100000000     0.787000000000     0          
O        O      0.125000000000     0.046500000000     0.772700000000     0          
T        Si     0.151900000000     0.012700000000     0.787000000000     0          
O        O      0.046500000000     0.375000000000     0.727300000000     0          
T        Si     0.012700000000     0.348100000000     0.713000000000     0          
O        O      0.453500000000     0.125000000000     0.727300000000     0          
T        Si     0.487300000000     0.151900000000     0.713000000000     0          
O        O      0.071450000000     0.571450000000     0.225450000000     0          
O        O      0.022700000000     0.625000000000     0.203500000000     0          
O        O      0.000000000000     0.574750000000     0.250000000000     0          
T        Si     0.037000000000     0.598100000000     0.237300000000     0          
O        O      0.071450000000     0.928550000000     0.274550000000     0          
O        O      0.125000000000     0.977300000000     0.296500000000     0          
O        O      0.074750000000     0.500000000000     0.250000000000     0          
T        Si     0.098100000000     0.963000000000     0.262700000000     0          
O        O      0.428550000000     0.928550000000     0.225450000000     0          
O        O      0.477300000000     0.875000000000     0.203500000000     0          
O        O      0.000000000000     0.925250000000     0.250000000000     0          
T        Si     0.463000000000     0.901900000000     0.237300000000     0          
O        O      0.428550000000     0.571450000000     0.274550000000     0          
O        O      0.375000000000     0.522700000000     0.296500000000     0          
O        O      0.425250000000     0.500000000000     0.250000000000     0          
T        Si     0.401900000000     0.537000000000     0.262700000000     0          
O        O      0.022700000000     0.875000000000     0.296500000000     0          
T        Si     0.037000000000     0.901900000000     0.262700000000     0          
O        O      0.375000000000     0.977300000000     0.203500000000     0          
T        Si     0.401900000000     0.963000000000     0.237300000000     0          
O        O      0.477300000000     0.625000000000     0.296500000000     0          
T        Si     0.463000000000     0.598100000000     0.262700000000     0          
O        O      0.125000000000     0.522700000000     0.203500000000     0          
T        Si     0.098100000000     0.537000000000     0.237300000000     0          
O        O      0.225450000000     0.571450000000     0.071450000000     0          
O        O      0.203500000000     0.522700000000     0.125000000000     0          
O        O      0.250000000000     0.500000000000     0.074750000000     0          
T        Si     0.237300000000     0.537000000000     0.098100000000     0          
O        O      0.071450000000     0.774550000000     0.428550000000     0          
O        O      0.022700000000     0.796500000000     0.375000000000     0          
O        O      0.000000000000     0.750000000000     0.425250000000     0          
T        Si     0.037000000000     0.762700000000     0.401900000000     0          
O        O      0.274550000000     0.928550000000     0.071450000000     0          
O        O      0.296500000000     0.977300000000     0.125000000000     0          
T        Si     0.262700000000     0.963000000000     0.098100000000     0          
O        O      0.428550000000     0.725450000000     0.428550000000     0          
O        O      0.477300000000     0.703500000000     0.375000000000     0          
T        Si     0.463000000000     0.737300000000     0.401900000000     0          
O        O      0.225450000000     0.928550000000     0.428550000000     0          
O        O      0.203500000000     0.977300000000     0.375000000000     0          
O        O      0.250000000000     0.500000000000     0.425250000000     0          
T        Si     0.237300000000     0.963000000000     0.401900000000     0          
O        O      0.428550000000     0.774550000000     0.071450000000     0          
O        O      0.477300000000     0.796500000000     0.125000000000     0          
O        O      0.000000000000     0.750000000000     0.074750000000     0          
T        Si     0.463000000000     0.762700000000     0.098100000000     0          
O        O      0.274550000000     0.571450000000     0.428550000000     0          
O        O      0.296500000000     0.522700000000     0.375000000000     0          
T        Si     0.262700000000     0.537000000000     0.401900000000     0          
O        O      0.071450000000     0.725450000000     0.071450000000     0          
O        O      0.022700000000     0.703500000000     0.125000000000     0          
T        Si     0.037000000000     0.737300000000     0.098100000000     0          
O        O      0.125000000000     0.703500000000     0.022700000000     0          
O        O      0.074750000000     0.750000000000     0.000000000000     0          
T        Si     0.098100000000     0.737300000000     0.037000000000     0          
O        O      0.125000000000     0.796500000000     0.477300000000     0          
T        Si     0.098100000000     0.762700000000     0.463000000000     0          
O        O      0.296500000000     0.875000000000     0.022700000000     0          
O        O      0.250000000000     0.925250000000     0.000000000000     0          
T        Si     0.262700000000     0.901900000000     0.037000000000     0          
O        O      0.375000000000     0.703500000000     0.477300000000     0          
O        O      0.425250000000     0.750000000000     0.000000000000     0          
T        Si     0.401900000000     0.737300000000     0.463000000000     0          
O        O      0.203500000000     0.625000000000     0.022700000000     0          
O        O      0.250000000000     0.574750000000     0.000000000000     0          
T        Si     0.237300000000     0.598100000000     0.037000000000     0          
O        O      0.375000000000     0.796500000000     0.022700000000     0          
T        Si     0.401900000000     0.762700000000     0.037000000000     0          
O        O      0.296500000000     0.625000000000     0.477300000000     0          
T        Si     0.262700000000     0.598100000000     0.463000000000     0          
O        O      0.203500000000     0.875000000000     0.477300000000     0          
T        Si     0.237300000000     0.901900000000     0.463000000000     0          
O        O      0.321450000000     0.821450000000     0.475450000000     0          
O        O      0.272700000000     0.875000000000     0.453500000000     0          
O        O      0.250000000000     0.824750000000     0.000000000000     0          
T        Si     0.287000000000     0.848100000000     0.487300000000     0          
O        O      0.321450000000     0.678550000000     0.024550000000     0          
O        O      0.375000000000     0.727300000000     0.046500000000     0          
O        O      0.324750000000     0.750000000000     0.000000000000     0          
T        Si     0.348100000000     0.713000000000     0.012700000000     0          
O        O      0.178550000000     0.678550000000     0.475450000000     0          
O        O      0.227300000000     0.625000000000     0.453500000000     0          
O        O      0.250000000000     0.675250000000     0.000000000000     0          
T        Si     0.213000000000     0.651900000000     0.487300000000     0          
O        O      0.178550000000     0.821450000000     0.024550000000     0          
O        O      0.125000000000     0.772700000000     0.046500000000     0          
O        O      0.175250000000     0.750000000000     0.000000000000     0          
T        Si     0.151900000000     0.787000000000     0.012700000000     0          
O        O      0.272700000000     0.625000000000     0.046500000000     0          
T        Si     0.287000000000     0.651900000000     0.012700000000     0          
O        O      0.125000000000     0.727300000000     0.453500000000     0          
T        Si     0.151900000000     0.713000000000     0.487300000000     0          
O        O      0.227300000000     0.875000000000     0.046500000000     0          
T        Si     0.213000000000     0.848100000000     0.012700000000     0          
O        O      0.375000000000     0.772700000000     0.453500000000     0          
T        Si     0.348100000000     0.787000000000     0.487300000000     0          
O        O      0.475450000000     0.821450000000     0.321450000000     0          
O        O      0.453500000000     0.772700000000     0.375000000000     0          
O        O      0.000000000000     0.750000000000     0.324750000000     0          
T        Si     0.487300000000     0.787000000000     0.348100000000     0          
O        O      0.321450000000     0.524550000000     0.178550000000     0          
O        O      0.272700000000     0.546500000000     0.125000000000     0          
O        O      0.250000000000     0.500000000000     0.175250000000     0          
T        Si     0.287000000000     0.512700000000     0.151900000000     0          
O        O      0.024550000000     0.678550000000     0.321450000000     0          
O        O      0.046500000000     0.727300000000     0.375000000000     0          
T        Si     0.012700000000     0.713000000000     0.348100000000     0          
O        O      0.178550000000     0.975450000000     0.178550000000     0          
O        O      0.227300000000     0.953500000000     0.125000000000     0          
T        Si     0.213000000000     0.987300000000     0.151900000000     0          
O        O      0.475450000000     0.678550000000     0.178550000000     0          
O        O      0.453500000000     0.727300000000     0.125000000000     0          
O        O      0.000000000000     0.750000000000     0.175250000000     0          
T        Si     0.487300000000     0.713000000000     0.151900000000     0          
O        O      0.178550000000     0.524550000000     0.321450000000     0          
O        O      0.227300000000     0.546500000000     0.375000000000     0          
O        O      0.250000000000     0.500000000000     0.324750000000     0          
T        Si     0.213000000000     0.512700000000     0.348100000000     0          
O        O      0.024550000000     0.821450000000     0.178550000000     0          
O        O      0.046500000000     0.772700000000     0.125000000000     0          
T        Si     0.012700000000     0.787000000000     0.151900000000     0          
O        O      0.321450000000     0.975450000000     0.321450000000     0          
O        O      0.272700000000     0.953500000000     0.375000000000     0          
T        Si     0.287000000000     0.987300000000     0.348100000000     0          
O        O      0.375000000000     0.953500000000     0.272700000000     0          
O        O      0.324750000000     0.500000000000     0.250000000000     0          
T        Si     0.348100000000     0.987300000000     0.287000000000     0          
O        O      0.375000000000     0.546500000000     0.227300000000     0          
T        Si     0.348100000000     0.512700000000     0.213000000000     0          
O        O      0.046500000000     0.625000000000     0.272700000000     0          
O        O      0.000000000000     0.675250000000     0.250000000000     0          
T        Si     0.012700000000     0.651900000000     0.287000000000     0          
O        O      0.125000000000     0.953500000000     0.227300000000     0          
O        O      0.175250000000     0.500000000000     0.250000000000     0          
T        Si     0.151900000000     0.987300000000     0.213000000000     0          
O        O      0.453500000000     0.875000000000     0.272700000000     0          
O        O      0.000000000000     0.824750000000     0.250000000000     0          
T        Si     0.487300000000     0.848100000000     0.287000000000     0          
O        O      0.125000000000     0.546500000000     0.272700000000     0          
T        Si     0.151900000000     0.512700000000     0.287000000000     0          
O        O      0.046500000000     0.875000000000     0.227300000000     0          
T        Si     0.012700000000     0.848100000000     0.213000000000     0          
O        O      0.453500000000     0.625000000000     0.227300000000     0          
T        Si     0.487300000000     0.651900000000     0.213000000000     0          
O        O      0.071450000000     0.571450000000     0.725450000000     0          
O        O      0.022700000000     0.625000000000     0.703500000000     0          
O        O      0.000000000000     0.574750000000     0.750000000000     0          
T        Si     0.037000000000     0.598100000000     0.737300000000     0          
O        O      0.071450000000     0.928550000000     0.774550000000     0          
O        O      0.125000000000     0.977300000000     0.796500000000     0          
O        O      0.074750000000     0.500000000000     0.750000000000     0          
T        Si     0.098100000000     0.963000000000     0.762700000000     0          
O        O      0.428550000000     0.928550000000     0.725450000000     0          
O        O      0.477300000000     0.875000000000     0.703500000000     0          
O        O      0.000000000000     0.925250000000     0.750000000000     0          
T        Si     0.463000000000     0.901900000000     0.737300000000     0          
O        O      0.428550000000     0.571450000000     0.774550000000     0          
O        O      0.375000000000     0.522700000000     0.796500000000     0          
O        O      0.425250000000     0.500000000000     0.750000000000     0          
T        Si     0.401900000000     0.537000000000     0.762700000000     0          
O        O      0.022700000000     0.875000000000     0.796500000000     0          
T        Si     0.037000000000     0.901900000000     0.762700000000     0          
O        O      0.375000000000     0.977300000000     0.703500000000     0          
T        Si     0.401900000000     0.963000000000     0.737300000000     0          
O        O      0.477300000000     0.625000000000     0.796500000000     0          
T        Si     0.463000000000     0.598100000000     0.762700000000     0          
O        O      0.125000000000     0.522700000000     0.703500000000     0          
T        Si     0.098100000000     0.537000000000     0.737300000000     0          
O        O      0.225450000000     0.571450000000     0.571450000000     0          
O        O      0.203500000000     0.522700000000     0.625000000000     0          
O        O      0.250000000000     0.500000000000     0.574750000000     0          
T        Si     0.237300000000     0.537000000000     0.598100000000     0          
O        O      0.071450000000     0.774550000000     0.928550000000     0          
O        O      0.022700000000     0.796500000000     0.875000000000     0          
O        O      0.000000000000     0.750000000000     0.925250000000     0          
T        Si     0.037000000000     0.762700000000     0.901900000000     0          
O        O      0.274550000000     0.928550000000     0.571450000000     0          
O        O      0.296500000000     0.977300000000     0.625000000000     0          
T        Si     0.262700000000     0.963000000000     0.598100000000     0          
O        O      0.428550000000     0.725450000000     0.928550000000     0          
O        O      0.477300000000     0.703500000000     0.875000000000     0          
T        Si     0.463000000000     0.737300000000     0.901900000000     0          
O        O      0.225450000000     0.928550000000     0.928550000000     0          
O        O      0.203500000000     0.977300000000     0.875000000000     0          
O        O      0.250000000000     0.500000000000     0.925250000000     0          
T        Si     0.237300000000     0.963000000000     0.901900000000     0          
O        O      0.428550000000     0.774550000000     0.571450000000     0          
O        O      0.477300000000     0.796500000000     0.625000000000     0          
O        O      0.000000000000     0.750000000000     0.574750000000     0          
T        Si     0.463000000000     0.762700000000     0.598100000000     0          
O        O      0.274550000000     0.571450000000     0.928550000000     0          
O        O      0.296500000000     0.522700000000     0.875000000000     0          
T        Si     0.262700000000     0.537000000000     0.901900000000     0          
O        O      0.071450000000     0.725450000000     0.571450000000     0          
O        O      0.022700000000     0.703500000000     0.625000000000     0          
T        Si     0.037000000000     0.737300000000     0.598100000000     0          
O        O      0.125000000000     0.703500000000     0.522700000000     0          
O        O      0.074750000000     0.750000000000     0.500000000000     0          
T        Si     0.098100000000     0.737300000000     0.537000000000     0          
O        O      0.125000000000     0.796500000000     0.977300000000     0          
T        Si     0.098100000000     0.762700000000     0.963000000000     0          
O        O      0.296500000000     0.875000000000     0.522700000000     0          
O        O      0.250000000000     0.925250000000     0.500000000000     0          
T        Si     0.262700000000     0.901900000000     0.537000000000     0          
O        O      0.375000000000     0.703500000000     0.977300000000     0          
O        O      0.425250000000     0.750000000000     0.500000000000     0          
T        Si     0.401900000000     0.737300000000     0.963000000000     0          
O        O      0.203500000000     0.625000000000     0.522700000000     0          
O        O      0.250000000000     0.574750000000     0.500000000000     0          
T        Si     0.237300000000     0.598100000000     0.537000000000     0          
O        O      0.375000000000     0.796500000000     0.522700000000     0          
T        Si     0.401900000000     0.762700000000     0.537000000000     0          
O        O      0.296500000000     0.625000000000     0.977300000000     0          
T        Si     0.262700000000     0.598100000000     0.963000000000     0          
O        O      0.203500000000     0.875000000000     0.977300000000     0          
T        Si     0.237300000000     0.901900000000     0.963000000000     0          
O        O      0.321450000000     0.821450000000     0.975450000000     0          
O        O      0.272700000000     0.875000000000     0.953500000000     0          
O        O      0.250000000000     0.824750000000     0.500000000000     0          
T        Si     0.287000000000     0.848100000000     0.987300000000     0          
O        O      0.321450000000     0.678550000000     0.524550000000     0          
O        O      0.375000000000     0.727300000000     0.546500000000     0          
O        O      0.324750000000     0.750000000000     0.500000000000     0          
T        Si     0.348100000000     0.713000000000     0.512700000000     0          
O        O      0.178550000000     0.678550000000     0.975450000000     0          
O        O      0.227300000000     0.625000000000     0.953500000000     0          
O        O      0.250000000000     0.675250000000     0.500000000000     0          
T        Si     0.213000000000     0.651900000000     0.987300000000     0          
O        O      0.178550000000     0.821450000000     0.524550000000     0          
O        O      0.125000000000     0.772700000000     0.546500000000     0          
O        O      0.175250000000     0.750000000000     0.500000000000     0          
T        Si     0.151900000000     0.787000000000     0.512700000000     0          
O        O      0.272700000000     0.625000000000     0.546500000000     0          
T        Si     0.287000000000     0.651900000000     0.512700000000     0          
O        O      0.125000000000     0.727300000000     0.953500000000     0          
T        Si     0.151900000000     0.713000000000     0.987300000000     0          
O        O      0.227300000000     0.875000000000     0.546500000000     0          
T        Si     0.213000000000     0.848100000000     0.512700000000     0          
O        O      0.375000000000     0.772700000000     0.953500000000     0          
T        Si     0.348100000000     0.787000000000     0.987300000000     0          
O        O      0.475450000000     0.821450000000     0.821450000000     0          
O        O      0.453500000000     0.772700000000     0.875000000000     0          
O        O      0.000000000000     0.750000000000     0.824750000000     0          
T        Si     0.487300000000     0.787000000000     0.848100000000     0          
O        O      0.321450000000     0.524550000000     0.678550000000     0          
O        O      0.272700000000     0.546500000000     0.625000000000     0          
O        O      0.250000000000     0.500000000000     0.675250000000     0          
T        Si     0.287000000000     0.512700000000     0.651900000000     0          
O        O      0.024550000000     0.678550000000     0.821450000000     0          
O        O      0.046500000000     0.727300000000     0.875000000000     0          
T        Si     0.012700000000     0.713000000000     0.848100000000     0          
O        O      0.178550000000     0.975450000000     0.678550000000     0          
O        O      0.227300000000     0.953500000000     0.625000000000     0          
T        Si     0.213000000000     0.987300000000     0.651900000000     0          
O        O      0.475450000000     0.678550000000     0.678550000000     0          
O        O      0.453500000000     0.727300000000     0.625000000000     0          
O        O      0.000000000000     0.750000000000     0.675250000000     0          
T        Si     0.487300000000     0.713000000000     0.651900000000     0          
O        O      0.178550000000     0.524550000000     0.821450000000     0          
O        O      0.227300000000     0.546500000000     0.875000000000     0          
O        O      0.250000000000     0.500000000000     0.824750000000     0          
T        Si     0.213000000000     0.512700000000     0.848100000000     0          
O        O      0.024550000000     0.821450000000     0.678550000000     0          
O        O      0.046500000000     0.772700000000     0.625000000000     0          
T        Si     0.012700000000     0.787000000000     0.651900000000     0          
O        O      0.321450000000     0.975450000000     0.821450000000     0          
O        O      0.272700000000     0.953500000000     0.875000000000     0          
T        Si     0.287000000000     0.987300000000     0.848100000000     0          
O        O      0.375000000000     0.953500000000     0.772700000000     0          
O        O      0.324750000000     0.500000000000     0.750000000000     0          
T        Si     0.348100000000     0.987300000000     0.787000000000     0          
O        O      0.375000000000     0.546500000000     0.727300000000     0          
T        Si     0.348100000000     0.512700000000     0.713000000000     0          
O        O      0.046500000000     0.625000000000     0.772700000000     0          
O        O      0.000000000000     0.675250000000     0.750000000000     0          
T        Si     0.012700000000     0.651900000000     0.787000000000     0          
O        O      0.125000000000     0.953500000000     0.727300000000     0          
O        O      0.175250000000     0.500000000000     0.750000000000     0          
T        Si     0.151900000000     0.987300000000     0.713000000000     0          
O        O      0.453500000000     0.875000000000     0.772700000000     0          
O        O      0.000000000000     0.824750000000     0.750000000000     0          
T        Si     0.487300000000     0.848100000000     0.787000000000     0          
O        O      0.125000000000     0.546500000000     0.772700000000     0          
T        Si     0.151900000000     0.512700000000     0.787000000000     0          
O        O      0.046500000000     0.875000000000     0.727300000000     0          
T        Si     0.012700000000     0.848100000000     0.713000000000     0          
O        O      0.453500000000     0.625000000000     0.727300000000     0          
T        Si     0.487300000000     0.651900000000     0.713000000000     0          
O        O      0.571450000000     0.071450000000     0.225450000000     0          
O        O      0.522700000000     0.125000000000     0.203500000000     0          
O        O      0.500000000000     0.074750000000     0.250000000000     0          
T        Si     0.537000000000     0.098100000000     0.237300000000     0          
O        O      0.571450000000     0.428550000000     0.274550000000     0          
O        O      0.625000000000     0.477300000000     0.296500000000     0          
O        O      0.574750000000     0.000000000000     0.250000000000     0          
T        Si     0.598100000000     0.463000000000     0.262700000000     0          
O        O      0.928550000000     0.428550000000     0.225450000000     0          
O        O      0.977300000000     0.375000000000     0.203500000000     0          
O        O      0.500000000000     0.425250000000     0.250000000000     0          
T        Si     0.963000000000     0.401900000000     0.237300000000     0          
O        O      0.928550000000     0.071450000000     0.274550000000     0          
O        O      0.875000000000     0.022700000000     0.296500000000     0          
O        O      0.925250000000     0.000000000000     0.250000000000     0          
T        Si     0.901900000000     0.037000000000     0.262700000000     0          
O        O      0.522700000000     0.375000000000     0.296500000000     0          
T        Si     0.537000000000     0.401900000000     0.262700000000     0          
O        O      0.875000000000     0.477300000000     0.203500000000     0          
T        Si     0.901900000000     0.463000000000     0.237300000000     0          
O        O      0.977300000000     0.125000000000     0.296500000000     0          
T        Si     0.963000000000     0.098100000000     0.262700000000     0          
O        O      0.625000000000     0.022700000000     0.203500000000     0          
T        Si     0.598100000000     0.037000000000     0.237300000000     0          
O        O      0.725450000000     0.071450000000     0.071450000000     0          
O        O      0.703500000000     0.022700000000     0.125000000000     0          
O        O      0.750000000000     0.000000000000     0.074750000000     0          
T        Si     0.737300000000     0.037000000000     0.098100000000     0          
O        O      0.571450000000     0.274550000000     0.428550000000     0          
O        O      0.522700000000     0.296500000000     0.375000000000     0          
O        O      0.500000000000     0.250000000000     0.425250000000     0          
T        Si     0.537000000000     0.262700000000     0.401900000000     0          
O        O      0.774550000000     0.428550000000     0.071450000000     0          
O        O      0.796500000000     0.477300000000     0.125000000000     0          
T        Si     0.762700000000     0.463000000000     0.098100000000     0          
O        O      0.928550000000     0.225450000000     0.428550000000     0          
O        O      0.977300000000     0.203500000000     0.375000000000     0          
T        Si     0.963000000000     0.237300000000     0.401900000000     0          
O        O      0.725450000000     0.428550000000     0.428550000000     0          
O        O      0.703500000000     0.477300000000     0.375000000000     0          
O        O      0.750000000000     0.000000000000     0.425250000000     0          
T        Si     0.737300000000     0.463000000000     0.401900000000     0          
O        O      0.928550000000     0.274550000000     0.071450000000     0          
O        O      0.977300000000     0.296500000000     0.125000000000     0          
O        O      0.500000000000     0.250000000000     0.074750000000     0          
T        Si     0.963000000000     0.262700000000     0.098100000000     0          
O        O      0.774550000000     0.071450000000     0.428550000000     0          
O        O      0.796500000000     0.022700000000     0.375000000000     0          
T        Si     0.762700000000     0.037000000000     0.401900000000     0          
O        O      0.571450000000     0.225450000000     0.071450000000     0          
O        O      0.522700000000     0.203500000000     0.125000000000     0          
T        Si     0.537000000000     0.237300000000     0.098100000000     0          
O        O      0.625000000000     0.203500000000     0.022700000000     0          
O        O      0.574750000000     0.250000000000     0.000000000000     0          
T        Si     0.598100000000     0.237300000000     0.037000000000     0          
O        O      0.625000000000     0.296500000000     0.477300000000     0          
T        Si     0.598100000000     0.262700000000     0.463000000000     0          
O        O      0.796500000000     0.375000000000     0.022700000000     0          
O        O      0.750000000000     0.425250000000     0.000000000000     0          
T        Si     0.762700000000     0.401900000000     0.037000000000     0          
O        O      0.875000000000     0.203500000000     0.477300000000     0          
O        O      0.925250000000     0.250000000000     0.000000000000     0          
T        Si     0.901900000000     0.237300000000     0.463000000000     0          
O        O      0.703500000000     0.125000000000     0.022700000000     0          
O        O      0.750000000000     0.074750000000     0.000000000000     0          
T        Si     0.737300000000     0.098100000000     0.037000000000     0          
O        O      0.875000000000     0.296500000000     0.022700000000     0          
T        Si     0.901900000000     0.262700000000     0.037000000000     0          
O        O      0.796500000000     0.125000000000     0.477300000000     0          
T        Si     0.762700000000     0.098100000000     0.463000000000     0          
O        O      0.703500000000     0.375000000000     0.477300000000     0          
T        Si     0.737300000000     0.401900000000     0.463000000000     0          
O        O      0.821450000000     0.321450000000     0.475450000000     0          
O        O      0.772700000000     0.375000000000     0.453500000000     0          
O        O      0.750000000000     0.324750000000     0.000000000000     0          
T        Si     0.787000000000     0.348100000000     0.487300000000     0          
O        O      0.821450000000     0.178550000000     0.024550000000     0          
O        O      0.875000000000     0.227300000000     0.046500000000     0          
O        O      0.824750000000     0.250000000000     0.000000000000     0          
T        Si     0.848100000000     0.213000000000     0.012700000000     0          
O        O      0.678550000000     0.178550000000     0.475450000000     0          
O        O      0.727300000000     0.125000000000     0.453500000000     0          
O        O      0.750000000000     0.175250000000     0.000000000000     0          
T        Si     0.713000000000     0.151900000000     0.487300000000     0          
O        O      0.678550000000     0.321450000000     0.024550000000     0          
O        O      0.625000000000     0.272700000000     0.046500000000     0          
O        O      0.675250000000     0.250000000000     0.000000000000     0          
T        Si     0.651900000000     0.287000000000     0.012700000000     0          
O        O      0.772700000000     0.125000000000     0.046500000000     0          
T        Si     0.787000000000     0.151900000000     0.012700000000     0          
O        O      0.625000000000     0.227300000000     0.453500000000     0          
T        Si     0.651900000000     0.213000000000     0.487300000000     0          
O        O      0.727300000000     0.375000000000     0.046500000000     0          
T        Si     0.713000000000     0.348100000000     0.012700000000     0          
O        O      0.875000000000     0.272700000000     0.453500000000     0          
T        Si     0.848100000000     0.287000000000     0.487300000000     0          
O        O      0.975450000000     0.321450000000     0.321450000000     0          
O        O      0.953500000000     0.272700000000     0.375000000000     0          
O        O      0.500000000000     0.250000000000     0.324750000000     0          
T        Si     0.987300000000     0.287000000000     0.348100000000     0          
O        O      0.821450000000     0.024550000000     0.178550000000     0          
O        O      0.772700000000     0.046500000000     0.125000000000     0          
O        O      0.750000000000     0.000000000000     0.175250000000     0          
T        Si     0.787000000000     0.012700000000     0.151900000000     0          
O        O      0.524550000000     0.178550000000     0.321450000000     0          
O        O      0.546500000000     0.227300000000     0.375000000000     0          
T        Si     0.512700000000     0.213000000000     0.348100000000     0          
O        O      0.678550000000     0.475450000000     0.178550000000     0          
O        O      0.727300000000     0.453500000000     0.125000000000     0          
T        Si     0.713000000000     0.487300000000     0.151900000000     0          
O        O      0.975450000000     0.178550000000     0.178550000000     0          
O        O      0.953500000000     0.227300000000     0.125000000000     0          
O        O      0.500000000000     0.250000000000     0.175250000000     0          
T        Si     0.987300000000     0.213000000000     0.151900000000     0          
O        O      0.678550000000     0.024550000000     0.321450000000     0          
O        O      0.727300000000     0.046500000000     0.375000000000     0          
O        O      0.750000000000     0.000000000000     0.324750000000     0          
T        Si     0.713000000000     0.012700000000     0.348100000000     0          
O        O      0.524550000000     0.321450000000     0.178550000000     0          
O        O      0.546500000000     0.272700000000     0.125000000000     0          
T        Si     0.512700000000     0.287000000000     0.151900000000     0          
O        O      0.821450000000     0.475450000000     0.321450000000     0          
O        O      0.772700000000     0.453500000000     0.375000000000     0          
T        Si     0.787000000000     0.487300000000     0.348100000000     0          
O        O      0.875000000000     0.453500000000     0.272700000000     0          
O        O      0.824750000000     0.000000000000     0.250000000000     0          
T        Si     0.848100000000     0.487300000000     0.287000000000     0          
O        O      0.875000000000     0.046500000000     0.227300000000     0          
T        Si     0.848100000000     0.012700000000     0.213000000000     0          
O        O      0.546500000000     0.125000000000     0.272700000000     0          
O        O      0.500000000000     0.175250000000     0.250000000000     0          
T        Si     0.512700000000     0.151900000000     0.287000000000     0          
O        O      0.625000000000     0.453500000000     0.227300000000     0          
O        O      0.675250000000     0.000000000000     0.250000000000     0          
T        Si     0.651900000000     0.487300000000     0.213000000000     0          
O        O      0.953500000000     0.375000000000     0.272700000000     0          
O        O      0.500000000000     0.324750000000     0.250000000000     0          
T        Si     0.987300000000     0.348100000000     0.287000000000     0          
O        O      0.625000000000     0.046500000000     0.272700000000     0          
T        Si     0.651900000000     0.012700000000     0.287000000000     0          
O        O      0.546500000000     0.375000000000     0.227300000000     0          
T        Si     0.512700000000     0.348100000000     0.213000000000     0          
O        O      0.953500000000     0.125000000000     0.227300000000     0          
T        Si     0.987300000000     0.151900000000     0.213000000000     0          
O        O      0.571450000000     0.071450000000     0.725450000000     0          
O        O      0.522700000000     0.125000000000     0.703500000000     0          
O        O      0.500000000000     0.074750000000     0.750000000000     0          
T        Si     0.537000000000     0.098100000000     0.737300000000     0          
O        O      0.571450000000     0.428550000000     0.774550000000     0          
O        O      0.625000000000     0.477300000000     0.796500000000     0          
O        O      0.574750000000     0.000000000000     0.750000000000     0          
T        Si     0.598100000000     0.463000000000     0.762700000000     0          
O        O      0.928550000000     0.428550000000     0.725450000000     0          
O        O      0.977300000000     0.375000000000     0.703500000000     0          
O        O      0.500000000000     0.425250000000     0.750000000000     0          
T        Si     0.963000000000     0.401900000000     0.737300000000     0          
O        O      0.928550000000     0.071450000000     0.774550000000     0          
O        O      0.875000000000     0.022700000000     0.796500000000     0          
O        O      0.925250000000     0.000000000000     0.750000000000     0          
T        Si     0.901900000000     0.037000000000     0.762700000000     0          
O        O      0.522700000000     0.375000000000     0.796500000000     0          
T        Si     0.537000000000     0.401900000000     0.762700000000     0          
O        O      0.875000000000     0.477300000000     0.703500000000     0          
T        Si     0.901900000000     0.463000000000     0.737300000000     0          
O        O      0.977300000000     0.125000000000     0.796500000000     0          
T        Si     0.963000000000     0.098100000000     0.762700000000     0          
O        O      0.625000000000     0.022700000000     0.703500000000     0          
T        Si     0.598100000000     0.037000000000     0.737300000000     0          
O        O      0.725450000000     0.071450000000     0.571450000000     0          
O        O      0.703500000000     0.022700000000     0.625000000000     0          
O        O      0.750000000000     0.000000000000     0.574750000000     0          
T        Si     0.737300000000     0.037000000000     0.598100000000     0          
O        O      0.571450000000     0.274550000000     0.928550000000     0          
O        O      0.522700000000     0.296500000000     0.875000000000     0          
O        O      0.500000000000     0.250000000000     0.925250000000     0          
T        Si     0.537000000000     0.262700000000     0.901900000000     0          
O        O      0.774550000000     0.428550000000     0.571450000000     0          
O        O      0.796500000000     0.477300000000     0.625000000000     0          
T        Si     0.762700000000     0.463000000000     0.598100000000     0          
O        O      0.928550000000     0.225450000000     0.928550000000     0          
O        O      0.977300000000     0.203500000000     0.875000000000     0          
T        Si     0.963000000000     0.237300000000     0.901900000000     0          
O        O      0.725450000000     0.428550000000     0.928550000000     0          
O        O      0.703500000000     0.477300000000     0.875000000000     0          
O        O      0.750000000000     0.000000000000     0.925250000000     0          
T        Si     0.737300000000     0.463000000000     0.901900000000     0          
O        O      0.928550000000     0.274550000000     0.571450000000     0          
O        O      0.977300000000     0.296500000000     0.625000000000     0          
O        O      0.500000000000     0.250000000000     0.574750000000     0          
T        Si     0.963000000000     0.262700000000     0.598100000000     0          
O        O      0.774550000000     0.071450000000     0.928550000000     0          
O        O      0.796500000000     0.022700000000     0.875000000000     0          
T        Si     0.762700000000     0.037000000000     0.901900000000     0          
O        O      0.571450000000     0.225450000000     0.571450000000     0          
O        O      0.522700000000     0.203500000000     0.625000000000     0          
T        Si     0.537000000000     0.237300000000     0.598100000000     0          
O        O      0.625000000000     0.203500000000     0.522700000000     0          
O        O      0.574750000000     0.250000000000     0.500000000000     0          
T        Si     0.598100000000     0.237300000000     0.537000000000     0          
O        O      0.625000000000     0.296500000000     0.977300000000     0          
T        Si     0.598100000000     0.262700000000     0.963000000000     0          
O        O      0.796500000000     0.375000000000     0.522700000000     0          
O        O      0.750000000000     0.425250000000     0.500000000000     0          
T        Si     0.762700000000     0.401900000000     0.537000000000     0          
O        O      0.875000000000     0.203500000000     0.977300000000     0          
O        O      0.925250000000     0.250000000000     0.500000000000     0          
T        Si     0.901900000000     0.237300000000     0.963000000000     0          
O        O      0.703500000000     0.125000000000     0.522700000000     0          
O        O      0.750000000000     0.074750000000     0.500000000000     0          
T        Si     0.737300000000     0.098100000000     0.537000000000     0          
O        O      0.875000000000     0.296500000000     0.522700000000     0          
T        Si     0.901900000000     0.262700000000     0.537000000000     0          
O        O      0.796500000000     0.125000000000     0.977300000000     0          
T        Si     0.762700000000     0.098100000000     0.963000000000     0          
O        O      0.703500000000     0.375000000000     0.977300000000     0          
T        Si     0.737300000000     0.401900000000     0.963000000000     0          
O        O      0.821450000000     0.321450000000     0.975450000000     0          
O        O      0.772700000000     0.375000000000     0.953500000000     0          
O        O      0.750000000000     0.324750000000     0.500000000000     0          
T        Si     0.787000000000     0.348100000000     0.987300000000     0          
O        O      0.821450000000     0.178550000000     0.524550000000     0          
O        O      0.875000000000     0.227300000000     0.546500000000     0          
O        O      0.824750000000     0.250000000000     0.500000000000     0          
T        Si     0.848100000000     0.213000000000     0.512700000000     0          
O        O      0.678550000000     0.178550000000     0.975450000000     0          
O        O      0.727300000000     0.125000000000     0.953500000000     0          
O        O      0.750000000000     0.175250000000     0.500000000000     0          
T        Si     0.713000000000     0.151900000000     0.987300000000     0          
O        O      0.678550000000     0.321450000000     0.524550000000     0          
O        O      0.625000000000     0.272700000000     0.546500000000     0          
O        O      0.675250000000     0.250000000000     0.500000000000     0          
T        Si     0.651900000000     0.287000000000     0.512700000000     0          
O        O      0.772700000000     0.125000000000     0.546500000000     0          
T        Si     0.787000000000     0.151900000000     0.512700000000     0          
O        O      0.625000000000     0.227300000000     0.953500000000     0          
T        Si     0.651900000000     0.213000000000     0.987300000000     0          
O        O      0.727300000000     0.375000000000     0.546500000000     0          
T        Si     0.713000000000     0.348100000000     0.512700000000     0          
O        O      0.875000000000     0.272700000000     0.953500000000     0          
T        Si     0.848100000000     0.287000000000     0.987300000000     0          
O        O      0.975450000000     0.321450000000     0.821450000000     0          
O        O      0.953500000000     0.272700000000     0.875000000000     0          
O        O      0.500000000000     0.250000000000     0.824750000000     0          
T        Si     0.987300000000     0.287000000000     0.848100000000     0          
O        O      0.821450000000     0.024550000000     0.678550000000     0          
O        O      0.772700000000     0.046500000000     0.625000000000     0          
O        O      0.750000000000     0.000000000000     0.675250000000     0          
T        Si     0.787000000000     0.012700000000     0.651900000000     0          
O        O      0.524550000000     0.178550000000     0.821450000000     0          
O        O      0.546500000000     0.227300000000     0.875000000000     0          
T        Si     0.512700000000     0.213000000000     0.848100000000     0          
O        O      0.678550000000     0.475450000000     0.678550000000     0          
O        O      0.727300000000     0.453500000000     0.625000000000     0          
T        Si     0.713000000000     0.487300000000     0.651900000000     0          
O        O      0.975450000000     0.178550000000     0.678550000000     0          
O        O      0.953500000000     0.227300000000     0.625000000000     0          
O        O      0.500000000000     0.250000000000     0.675250000000     0          
T        Si     0.987300000000     0.213000000000     0.651900000000     0          
O        O      0.678550000000     0.024550000000     0.821450000000     0          
O        O      0.727300000000     0.046500000000     0.875000000000     0          
O        O      0.750000000000     0.000000000000     0.824750000000     0          
T        Si     0.713000000000     0.012700000000     0.848100000000     0          
O        O      0.524550000000     0.321450000000     0.678550000000     0          
O        O      0.546500000000     0.272700000000     0.625000000000     0          
T        Si     0.512700000000     0.287000000000     0.651900000000     0          
O        O      0.821450000000     0.475450000000     0.821450000000     0          
O        O      0.772700000000     0.453500000000     0.875000000000     0          
T        Si     0.787000000000     0.487300000000     0.848100000000     0          
O        O      0.875000000000     0.453500000000     0.772700000000     0          
O        O      0.824750000000     0.000000000000     0.750000000000     0          
T        Si     0.848100000000     0.487300000000     0.787000000000     0          
O        O      0.875000000000     0.046500000000     0.727300000000     0          
T        Si     0.848100000000     0.012700000000     0.713000000000     0          
O        O      0.546500000000     0.125000000000     0.772700000000     0          
O        O      0.500000000000     0.175250000000     0.750000000000     0          
T        Si     0.512700000000     0.151900000000     0.787000000000     0          
O        O      0.625000000000     0.453500000000     0.727300000000     0          
O        O      0.675250000000     0.000000000000     0.750000000000     0          
T        Si     0.651900000000     0.487300000000     0.713000000000     0          
O        O      0.953500000000     0.375000000000     0.772700000000     0          
O        O      0.500000000000     0.324750000000     0.750000000000     0          
T        Si     0.987300000000     0.348100000000     0.787000000000     0          
O        O      0.625000000000     0.046500000000     0.772700000000     0          
T        Si     0.651900000000     0.012700000000     0.787000000000     0          
O        O      0.546500000000     0.375000000000     0.727300000000     0          
T        Si     0.512700000000     0.348100000000     0.713000000000     0          
O        O      0.953500000000     0.125000000000     0.727300000000     0          
T        Si     0.987300000000     0.151900000000     0.713000000000     0          
O        O      0.571450000000     0.571450000000     0.225450000000     0          
O        O      0.522700000000     0.625000000000     0.203500000000     0          
O        O      0.500000000000     0.574750000000     0.250000000000     0          
T        Si     0.537000000000     0.598100000000     0.237300000000     0          
O        O      0.571450000000     0.928550000000     0.274550000000     0          
O        O      0.625000000000     0.977300000000     0.296500000000     0          
O        O      0.574750000000     0.500000000000     0.250000000000     0          
T        Si     0.598100000000     0.963000000000     0.262700000000     0          
O        O      0.928550000000     0.928550000000     0.225450000000     0          
O        O      0.977300000000     0.875000000000     0.203500000000     0          
O        O      0.500000000000     0.925250000000     0.250000000000     0          
T        Si     0.963000000000     0.901900000000     0.237300000000     0          
O        O      0.928550000000     0.571450000000     0.274550000000     0          
O        O      0.875000000000     0.522700000000     0.296500000000     0          
O        O      0.925250000000     0.500000000000     0.250000000000     0          
T        Si     0.901900000000     0.537000000000     0.262700000000     0          
O        O      0.522700000000     0.875000000000     0.296500000000     0          
T        Si     0.537000000000     0.901900000000     0.262700000000     0          
O        O      0.875000000000     0.977300000000     0.203500000000     0          
T        Si     0.901900000000     0.963000000000     0.237300000000     0          
O        O      0.977300000000     0.625000000000     0.296500000000     0          
T        Si     0.963000000000     0.598100000000     0.262700000000     0          
O        O      0.625000000000     0.522700000000     0.203500000000     0          
T        Si     0.598100000000     0.537000000000     0.237300000000     0          
O        O      0.725450000000     0.571450000000     0.071450000000     0          
O        O      0.703500000000     0.522700000000     0.125000000000     0          
O        O      0.750000000000     0.500000000000     0.074750000000     0          
T        Si     0.737300000000     0.537000000000     0.098100000000     0          
O        O      0.571450000000     0.774550000000     0.428550000000     0          
O        O      0.522700000000     0.796500000000     0.375000000000     0          
O        O      0.500000000000     0.750000000000     0.425250000000     0          
T        Si     0.537000000000     0.762700000000     0.401900000000     0          
O        O      0.774550000000     0.928550000000     0.071450000000     0          
O        O      0.796500000000     0.977300000000     0.125000000000     0          
T        Si     0.762700000000     0.963000000000     0.098100000000     0          
O        O      0.928550000000     0.725450000000     0.428550000000     0          
O        O      0.977300000000     0.703500000000     0.375000000000     0          
T        Si     0.963000000000     0.737300000000     0.401900000000     0          
O        O      0.725450000000     0.928550000000     0.428550000000     0          
O        O      0.703500000000     0.977300000000     0.375000000000     0          
O        O      0.750000000000     0.500000000000     0.425250000000     0          
T        Si     0.737300000000     0.963000000000     0.401900000000     0          
O        O      0.928550000000     0.774550000000     0.071450000000     0          
O        O      0.977300000000     0.796500000000     0.125000000000     0          
O        O      0.500000000000     0.750000000000     0.074750000000     0          
T        Si     0.963000000000     0.762700000000     0.098100000000     0          
O        O      0.774550000000     0.571450000000     0.428550000000     0          
O        O      0.796500000000     0.522700000000     0.375000000000     0          
T        Si     0.762700000000     0.537000000000     0.401900000000     0          
O        O      0.571450000000     0.725450000000     0.071450000000     0          
O        O      0.522700000000     0.703500000000     0.125000000000     0          
T        Si     0.537000000000     0.737300000000     0.098100000000     0          
O        O      0.625000000000     0.703500000000     0.022700000000     0          
O        O      0.574750000000     0.750000000000     0.000000000000     0          
T        Si     0.598100000000     0.737300000000     0.037000000000     0          
O        O      0.625000000000     0.796500000000     0.477300000000     0          
T        Si     0.598100000000     0.762700000000     0.463000000000     0          
O        O      0.796500000000     0.875000000000     0.022700000000     0          
O        O      0.750000000000     0.925250000000     0.000000000000     0          
T        Si     0.762700000000     0.901900000000     0.037000000000     0          
O        O      0.875000000000     0.703500000000     0.477300000000     0          
O        O      0.925250000000     0.750000000000     0.000000000000     0          
T        Si     0.901900000000     0.737300000000     0.463000000000     0          
O        O      0.703500000000     0.625000000000     0.022700000000     0          
O        O      0.750000000000     0.574750000000     0.000000000000     0          
T        Si     0.737300000000     0.598100000000     0.037000000000     0          
O        O      0.875000000000     0.796500000000     0.022700000000     0          
T        Si     0.901900000000     0.762700000000     0.037000000000     0          
O        O      0.796500000000     0.625000000000     0.477300000000     0          
T        Si     0.762700000000     0.598100000000     0.463000000000     0          
O        O      0.703500000000     0.875000000000     0.477300000000     0          
T        Si     0.737300000000     0.901900000000     0.463000000000     0          
O        O      0.821450000000     0.821450000000     0.475450000000     0          
O        O      0.772700000000     0.875000000000     0.453500000000     0          
O        O      0.750000000000     0.824750000000     0.000000000000     0          
T        Si     0.787000000000     0.848100000000     0.487300000000     0          
O        O      0.821450000000     0.678550000000     0.024550000000     0          
O        O      0.875000000000     0.727300000000     0.046500000000     0          
O        O      0.824750000000     0.750000000000     0.000000000000     0          
T        Si     0.848100000000     0.713000000000     0.012700000000     0          
O        O      0.678550000000     0.678550000000     0.475450000000     0          
O        O      0.727300000000     0.625000000000     0.453500000000     0          
O        O      0.750000000000     0.675250000000     0.000000000000     0          
T        Si     0.713000000000     0.651900000000     0.487300000000     0          
O        O      0.678550000000     0.821450000000     0.024550000000     0          
O        O      0.625000000000     0.772700000000     0.046500000000     0          
O        O      0.675250000000     0.750000000000     0.000000000000     0          
T        Si     0.651900000000     0.787000000000     0.012700000000     0          
O        O      0.772700000000     0.625000000000     0.046500000000     0          
T        Si     0.787000000000     0.651900000000     0.012700000000     0          
O        O      0.625000000000     0.727300000000     0.453500000000     0          
T        Si     0.651900000000     0.713000000000     0.487300000000     0          
O        O      0.727300000000     0.875000000000     0.046500000000     0          
T        Si     0.713000000000     0.848100000000     0.012700000000     0          
O        O      0.875000000000     0.772700000000     0.453500000000     0          
T        Si     0.848100000000     0.787000000000     0.487300000000     0          
O        O      0.975450000000     0.821450000000     0.321450000000     0          
O        O      0.953500000000     0.772700000000     0.375000000000     0          
O        O      0.500000000000     0.750000000000     0.324750000000     0          
T        Si     0.987300000000     0.787000000000     0.348100000000     0          
O        O      0.821450000000     0.524550000000     0.178550000000     0          
O        O      0.772700000000     0.546500000000     0.125000000000     0          
O        O      0.750000000000     0.500000000000     0.175250000000     0          
T        Si     0.787000000000     0.512700000000     0.151900000000     0          
O        O      0.524550000000     0.678550000000     0.321450000000     0          
O        O      0.546500000000     0.727300000000     0.375000000000     0          
T        Si     0.512700000000     0.713000000000     0.348100000000     0          
O        O      0.678550000000     0.975450000000     0.178550000000     0          
O        O      0.727300000000     0.953500000000     0.125000000000     0          
T        Si     0.713000000000     0.987300000000     0.151900000000     0          
O        O      0.975450000000     0.678550000000     0.178550000000     0          
O        O      0.953500000000     0.727300000000     0.125000000000     0          
O        O      0.500000000000     0.750000000000     0.175250000000     0          
T        Si     0.987300000000     0.713000000000     0.151900000000     0          
O        O      0.678550000000     0.524550000000     0.321450000000     0          
O        O      0.727300000000     0.546500000000     0.375000000000     0          
O        O      0.750000000000     0.500000000000     0.324750000000     0          
T        Si     0.713000000000     0.512700000000     0.348100000000     0          
O        O      0.524550000000     0.821450000000     0.178550000000     0          
O        O      0.546500000000     0.772700000000     0.125000000000     0          
T        Si     0.512700000000     0.787000000000     0.151900000000     0          
O        O      0.821450000000     0.975450000000     0.321450000000     0          
O        O      0.772700000000     0.953500000000     0.375000000000     0          
T        Si     0.787000000000     0.987300000000     0.348100000000     0          
O        O      0.875000000000     0.953500000000     0.272700000000     0          
O        O      0.824750000000     0.500000000000     0.250000000000     0          
T        Si     0.848100000000     0.987300000000     0.287000000000     0          
O        O      0.875000000000     0.546500000000     0.227300000000     0          
T        Si     0.848100000000     0.512700000000     0.213000000000     0          
O        O      0.546500000000     0.625000000000     0.272700000000     0          
O        O      0.500000000000     0.675250000000     0.250000000000     0          
T        Si     0.512700000000     0.651900000000     0.287000000000     0          
O        O      0.625000000000     0.953500000000     0.227300000000     0          
O        O      0.675250000000     0.500000000000     0.250000000000     0          
T        Si     0.651900000000     0.987300000000     0.213000000000     0          
O        O      0.953500000000     0.875000000000     0.272700000000     0          
O        O      0.500000000000     0.824750000000     0.250000000000     0          
T        Si     0.987300000000     0.848100000000     0.287000000000     0          
O        O      0.625000000000     0.546500000000     0.272700000000     0          
T        Si     0.651900000000     0.512700000000     0.287000000000     0          
O        O      0.546500000000     0.875000000000     0.227300000000     0          
T        Si     0.512700000000     0.848100000000     0.213000000000     0          
O        O      0.953500000000     0.625000000000     0.227300000000     0          
T        Si     0.987300000000     0.651900000000     0.213000000000     0          
O        O      0.571450000000     0.571450000000     0.725450000000     0          
O        O      0.522700000000     0.625000000000     0.703500000000     0          
O        O      0.500000000000     0.574750000000     0.750000000000     0          
T        Si     0.537000000000     0.598100000000     0.737300000000     0          
O        O      0.571450000000     0.928550000000     0.774550000000     0          
O        O      0.625000000000     0.977300000000     0.796500000000     0          
O        O      0.574750000000     0.500000000000     0.750000000000     0          
T        Si     0.598100000000     0.963000000000     0.762700000000     0          
O        O      0.928550000000     0.928550000000     0.725450000000     0          
O        O      0.977300000000     0.875000000000     0.703500000000     0          
O        O      0.500000000000     0.925250000000     0.750000000000     0          
T        Si     0.963000000000     0.901900000000     0.737300000000     0          
O        O      0.928550000000     0.571450000000     0.774550000000     0          
O        O      0.875000000000     0.522700000000     0.796500000000     0          
O        O      0.925250000000     0.500000000000     0.750000000000     0          
T        Si     0.901900000000     0.537000000000     0.762700000000     0          
O        O      0.522700000000     0.875000000000     0.796500000000     0          
T        Si     0.537000000000     0.901900000000     0.762700000000     0          
O        O      0.875000000000     0.977300000000     0.703500000000     0          
T        Si     0.901900000000     0.963000000000     0.737300000000     0          
O        O      0.977300000000     0.625000000000     0.796500000000     0          
T        Si     0.963000000000     0.598100000000     0.762700000000     0          
O        O      0.625000000000     0.522700000000     0.703500000000     0          
T        Si     0.598100000000     0.537000000000     0.737300000000     0          
O        O      0.725450000000     0.571450000000     0.571450000000     0          
O        O      0.703500000000     0.522700000000     0.625000000000     0          
O        O      0.750000000000     0.500000000000     0.574750000000     0          
T        Si     0.737300000000     0.537000000000     0.598100000000     0          
O        O      0.571450000000     0.774550000000     0.928550000000     0          
O        O      0.522700000000     0.796500000000     0.875000000000     0          
O        O      0.500000000000     0.750000000000     0.925250000000     0          
T        Si     0.537000000000     0.762700000000     0.901900000000     0          
O        O      0.774550000000     0.928550000000     0.571450000000     0          
O        O      0.796500000000     0.977300000000     0.625000000000     0          
T        Si     0.762700000000     0.963000000000     0.598100000000     0          
O        O      0.928550000000     0.725450000000     0.928550000000     0          
O        O      0.977300000000     0.703500000000     0.875000000000     0          
T        Si     0.963000000000     0.737300000000     0.901900000000     0          
O        O      0.725450000000     0.928550000000     0.928550000000     0          
O        O      0.703500000000     0.977300000000     0.875000000000     0          
O        O      0.750000000000     0.500000000000     0.925250000000     0          
T        Si     0.737300000000     0.963000000000     0.901900000000     0          
O        O      0.928550000000     0.774550000000     0.571450000000     0          
O        O      0.977300000000     0.796500000000     0.625000000000     0          
O        O      0.500000000000     0.750000000000     0.574750000000     0          
T        Si     0.963000000000     0.762700000000     0.598100000000     0          
O        O      0.774550000000     0.571450000000     0.928550000000     0          
O        O      0.796500000000     0.522700000000     0.875000000000     0          
T        Si     0.762700000000     0.537000000000     0.901900000000     0          
O        O      0.571450000000     0.725450000000     0.571450000000     0          
O        O      0.522700000000     0.703500000000     0.625000000000     0          
T        Si     0.537000000000     0.737300000000     0.598100000000     0          
O        O      0.625000000000     0.703500000000     0.522700000000     0          
O        O      0.574750000000     0.750000000000     0.500000000000     0          
T        Si     0.598100000000     0.737300000000     0.537000000000     0          
O        O      0.625000000000     0.796500000000     0.977300000000     0          
T        Si     0.598100000000     0.762700000000     0.963000000000     0          
O        O      0.796500000000     0.875000000000     0.522700000000     0          
O        O      0.750000000000     0.925250000000     0.500000000000     0          
T        Si     0.762700000000     0.901900000000     0.537000000000     0          
O        O      0.875000000000     0.703500000000     0.977300000000     0          
O        O      0.925250000000     0.750000000000     0.500000000000     0          
T        Si     0.901900000000     0.737300000000     0.963000000000     0          
O        O      0.703500000000     0.625000000000     0.522700000000     0          
O        O      0.750000000000     0.574750000000     0.500000000000     0          
T        Si     0.737300000000     0.598100000000     0.537000000000     0          
O        O      0.875000000000     0.796500000000     0.522700000000     0          
T        Si     0.901900000000     0.762700000000     0.537000000000     0          
O        O      0.796500000000     0.625000000000     0.977300000000     0          
T        Si     0.762700000000     0.598100000000     0.963000000000     0          
O        O      0.703500000000     0.875000000000     0.977300000000     0          
T        Si     0.737300000000     0.901900000000     0.963000000000     0          
O        O      0.821450000000     0.821450000000     0.975450000000     0          
O        O      0.772700000000     0.875000000000     0.953500000000     0          
O        O      0.750000000000     0.824750000000     0.500000000000     0          
T        Si     0.787000000000     0.848100000000     0.987300000000     0          
O        O      0.821450000000     0.678550000000     0.524550000000     0          
O        O      0.875000000000     0.727300000000     0.546500000000     0          
O        O      0.824750000000     0.750000000000     0.500000000000     0          
T        Si     0.848100000000     0.713000000000     0.512700000000     0          
O        O      0.678550000000     0.678550000000     0.975450000000     0          
O        O      0.727300000000     0.625000000000     0.953500000000     0          
O        O      0.750000000000     0.675250000000     0.500000000000     0          
T        Si     0.713000000000     0.651900000000     0.987300000000     0          
O        O      0.678550000000     0.821450000000     0.524550000000     0          
O        O      0.625000000000     0.772700000000     0.546500000000     0          
O        O      0.675250000000     0.750000000000     0.500000000000     0          
T        Si     0.651900000000     0.787000000000     0.512700000000     0          
O        O      0.772700000000     0.625000000000     0.546500000000     0          
T        Si     0.787000000000     0.651900000000     0.512700000000     0          
O        O      0.625000000000     0.727300000000     0.953500000000     0          
T        Si     0.651900000000     0.713000000000     0.987300000000     0          
O        O      0.727300000000     0.875000000000     0.546500000000     0          
T        Si     0.713000000000     0.848100000000     0.512700000000     0          
O        O      0.875000000000     0.772700000000     0.953500000000     0          
T        Si     0.848100000000     0.787000000000     0.987300000000     0          
O        O      0.975450000000     0.821450000000     0.821450000000     0          
O        O      0.953500000000     0.772700000000     0.875000000000     0          
O        O      0.500000000000     0.750000000000     0.824750000000     0          
T        Si     0.987300000000     0.787000000000     0.848100000000     0          
O        O      0.821450000000     0.524550000000     0.678550000000     0          
O        O      0.772700000000     0.546500000000     0.625000000000     0          
O        O      0.750000000000     0.500000000000     0.675250000000     0          
T        Si     0.787000000000     0.512700000000     0.651900000000     0          
O        O      0.524550000000     0.678550000000     0.821450000000     0          
O        O      0.546500000000     0.727300000000     0.875000000000     0          
T        Si     0.512700000000     0.713000000000     0.848100000000     0          
O        O      0.678550000000     0.975450000000     0.678550000000     0          
O        O      0.727300000000     0.953500000000     0.625000000000     0          
T        Si     0.713000000000     0.987300000000     0.651900000000     0          
O        O      0.975450000000     0.678550000000     0.678550000000     0          
O        O      0.953500000000     0.727300000000     0.625000000000     0          
O        O      0.500000000000     0.750000000000     0.675250000000     0          
T        Si     0.987300000000     0.713000000000     0.651900000000     0          
O        O      0.678550000000     0.524550000000     0.821450000000     0          
O        O      0.727300000000     0.546500000000     0.875000000000     0          
O        O      0.750000000000     0.500000000000     0.824750000000     0          
T        Si     0.713000000000     0.512700000000     0.848100000000     0          
O        O      0.524550000000     0.821450000000     0.678550000000     0          
O        O      0.546500000000     0.772700000000     0.625000000000     0          
T        Si     0.512700000000     0.787000000000     0.651900000000     0          
O        O      0.821450000000     0.975450000000     0.821450000000     0          
O        O      0.772700000000     0.953500000000     0.875000000000     0          
T        Si     0.787000000000     0.987300000000     0.848100000000     0          
O        O      0.875000000000     0.953500000000     0.772700000000     0          
O        O      0.824750000000     0.500000000000     0.750000000000     0          
T        Si     0.848100000000     0.987300000000     0.787000000000     0          
O        O      0.875000000000     0.546500000000     0.727300000000     0          
T        Si     0.848100000000     0.512700000000     0.713000000000     0          
O        O      0.546500000000     0.625000000000     0.772700000000     0          
O        O      0.500000000000     0.675250000000     0.750000000000     0          
T        Si     0.512700000000     0.651900000000     0.787000000000     0          
O        O      0.625000000000     0.953500000000     0.727300000000     0          
O        O      0.675250000000     0.500000000000     0.750000000000     0          
T        Si     0.651900000000     0.987300000000     0.713000000000     0          
O        O      0.953500000000     0.875000000000     0.772700000000     0          
O        O      0.500000000000     0.824750000000     0.750000000000     0          
T        Si     0.987300000000     0.848100000000     0.787000000000     0          
O        O      0.625000000000     0.546500000000     0.772700000000     0          
T        Si     0.651900000000     0.512700000000     0.787000000000     0          
O        O      0.546500000000     0.875000000000     0.727300000000     0          
T        Si     0.512700000000     0.848100000000     0.713000000000     0          
O        O      0.953500000000     0.625000000000     0.727300000000     0          
T        Si     0.987300000000     0.651900000000     0.713000000000     0          


