data_zeolite

_audit_creation_method RASPA-1.0
_audit_creation_date 2022-1-5
_audit_author_name ''

_cell_length_a    33.028
_cell_length_b    29.124
_cell_length_c    40.628
_cell_angle_alpha 90
_cell_angle_beta  90
_cell_angle_gamma 90
_cell_volume      39080.4

_symmetry_cell_setting          orthorhombic
_symmetry_space_group_name_Hall 'P 1'
_symmetry_space_group_name_H-M  'P 1'
_symmetry_Int_Tables_number     1

_symmetry_equiv_pos_as_xyz 'x,y,z'

loop_
_atom_site_label
_atom_site_type_symbol
_atom_site_fract_x
_atom_site_fract_y
_atom_site_fract_z
_atom_site_charge
O        O      0.125000000000     0.375000000000     0.005950000000     0          
O        O      0.000000000000     0.375000000000     0.075100000000     0          
O        O      0.125000000000     0.483700000000     0.084900000000     0          
O        O      0.000000000000     0.456650000000     0.476950000000     0          
O        O      0.048550000000     0.375000000000     0.023800000000     0          
O        O      0.069125000000     0.420000000000     0.077300000000     0          
O        O      0.062500000000     0.480750000000     0.125000000000     0          
O        O      0.052550000000     0.006300000000     0.063950000000     0          
O        O      0.063575000000     0.000000000000     0.000000000000     0          
O        O      0.071875000000     0.420100000000     0.470700000000     0          
T        Si     0.077450000000     0.472400000000     0.087800000000     0          
T        Si     0.047100000000     0.467750000000     0.470700000000     0          
T        Si     0.078975000000     0.375000000000     0.492850000000     0          
T        Si     0.046575000000     0.375000000000     0.063400000000     0          
O        O      0.125000000000     0.266300000000     0.084900000000     0          
O        O      0.000000000000     0.293350000000     0.476950000000     0          
O        O      0.201450000000     0.375000000000     0.023800000000     0          
O        O      0.180875000000     0.330000000000     0.077300000000     0          
O        O      0.187500000000     0.269250000000     0.125000000000     0          
O        O      0.197450000000     0.243700000000     0.063950000000     0          
O        O      0.186425000000     0.250000000000     0.000000000000     0          
O        O      0.178125000000     0.329900000000     0.470700000000     0          
T        Si     0.172550000000     0.277600000000     0.087800000000     0          
T        Si     0.202900000000     0.282250000000     0.470700000000     0          
T        Si     0.171025000000     0.375000000000     0.492850000000     0          
T        Si     0.203425000000     0.375000000000     0.063400000000     0          
O        O      0.125000000000     0.125000000000     0.494050000000     0          
O        O      0.000000000000     0.125000000000     0.424900000000     0          
O        O      0.125000000000     0.016300000000     0.415100000000     0          
O        O      0.000000000000     0.043350000000     0.023050000000     0          
O        O      0.048550000000     0.125000000000     0.476200000000     0          
O        O      0.069125000000     0.080000000000     0.422700000000     0          
O        O      0.062500000000     0.019250000000     0.375000000000     0          
O        O      0.052550000000     0.493700000000     0.436050000000     0          
O        O      0.071875000000     0.079900000000     0.029300000000     0          
T        Si     0.077450000000     0.027600000000     0.412200000000     0          
T        Si     0.047100000000     0.032250000000     0.029300000000     0          
T        Si     0.078975000000     0.125000000000     0.007150000000     0          
T        Si     0.046575000000     0.125000000000     0.436600000000     0          
O        O      0.125000000000     0.233700000000     0.415100000000     0          
O        O      0.000000000000     0.206650000000     0.023050000000     0          
O        O      0.201450000000     0.125000000000     0.476200000000     0          
O        O      0.180875000000     0.170000000000     0.422700000000     0          
O        O      0.187500000000     0.230750000000     0.375000000000     0          
O        O      0.197450000000     0.256300000000     0.436050000000     0          
O        O      0.178125000000     0.170100000000     0.029300000000     0          
T        Si     0.172550000000     0.222400000000     0.412200000000     0          
T        Si     0.202900000000     0.217750000000     0.029300000000     0          
T        Si     0.171025000000     0.125000000000     0.007150000000     0          
T        Si     0.203425000000     0.125000000000     0.436600000000     0          
O        O      0.180875000000     0.080000000000     0.422700000000     0          
O        O      0.187500000000     0.019250000000     0.375000000000     0          
O        O      0.197450000000     0.493700000000     0.436050000000     0          
O        O      0.186425000000     0.000000000000     0.000000000000     0          
O        O      0.178125000000     0.079900000000     0.029300000000     0          
T        Si     0.172550000000     0.027600000000     0.412200000000     0          
T        Si     0.202900000000     0.032250000000     0.029300000000     0          
O        O      0.069125000000     0.170000000000     0.422700000000     0          
O        O      0.062500000000     0.230750000000     0.375000000000     0          
O        O      0.052550000000     0.256300000000     0.436050000000     0          
O        O      0.063575000000     0.250000000000     0.000000000000     0          
O        O      0.071875000000     0.170100000000     0.029300000000     0          
T        Si     0.077450000000     0.222400000000     0.412200000000     0          
T        Si     0.047100000000     0.217750000000     0.029300000000     0          
O        O      0.180875000000     0.420000000000     0.077300000000     0          
O        O      0.187500000000     0.480750000000     0.125000000000     0          
O        O      0.197450000000     0.006300000000     0.063950000000     0          
O        O      0.178125000000     0.420100000000     0.470700000000     0          
T        Si     0.172550000000     0.472400000000     0.087800000000     0          
T        Si     0.202900000000     0.467750000000     0.470700000000     0          
O        O      0.069125000000     0.330000000000     0.077300000000     0          
O        O      0.062500000000     0.269250000000     0.125000000000     0          
O        O      0.052550000000     0.243700000000     0.063950000000     0          
O        O      0.071875000000     0.329900000000     0.470700000000     0          
T        Si     0.077450000000     0.277600000000     0.087800000000     0          
T        Si     0.047100000000     0.282250000000     0.470700000000     0          
O        O      0.000000000000     0.125000000000     0.255950000000     0          
O        O      0.125000000000     0.125000000000     0.325100000000     0          
O        O      0.000000000000     0.233700000000     0.334900000000     0          
O        O      0.125000000000     0.206650000000     0.226950000000     0          
O        O      0.173550000000     0.125000000000     0.273800000000     0          
O        O      0.194125000000     0.170000000000     0.327300000000     0          
O        O      0.177550000000     0.256300000000     0.313950000000     0          
O        O      0.188575000000     0.250000000000     0.250000000000     0          
O        O      0.196875000000     0.170100000000     0.220700000000     0          
T        Si     0.202450000000     0.222400000000     0.337800000000     0          
T        Si     0.172100000000     0.217750000000     0.220700000000     0          
T        Si     0.203975000000     0.125000000000     0.242850000000     0          
T        Si     0.171575000000     0.125000000000     0.313400000000     0          
O        O      0.000000000000     0.016300000000     0.334900000000     0          
O        O      0.125000000000     0.043350000000     0.226950000000     0          
O        O      0.076450000000     0.125000000000     0.273800000000     0          
O        O      0.055875000000     0.080000000000     0.327300000000     0          
O        O      0.072450000000     0.493700000000     0.313950000000     0          
O        O      0.061425000000     0.000000000000     0.250000000000     0          
O        O      0.053125000000     0.079900000000     0.220700000000     0          
T        Si     0.047550000000     0.027600000000     0.337800000000     0          
T        Si     0.077900000000     0.032250000000     0.220700000000     0          
T        Si     0.046025000000     0.125000000000     0.242850000000     0          
T        Si     0.078425000000     0.125000000000     0.313400000000     0          
O        O      0.000000000000     0.375000000000     0.244050000000     0          
O        O      0.125000000000     0.375000000000     0.174900000000     0          
O        O      0.000000000000     0.266300000000     0.165100000000     0          
O        O      0.125000000000     0.293350000000     0.273050000000     0          
O        O      0.173550000000     0.375000000000     0.226200000000     0          
O        O      0.194125000000     0.330000000000     0.172700000000     0          
O        O      0.177550000000     0.243700000000     0.186050000000     0          
O        O      0.196875000000     0.329900000000     0.279300000000     0          
T        Si     0.202450000000     0.277600000000     0.162200000000     0          
T        Si     0.172100000000     0.282250000000     0.279300000000     0          
T        Si     0.203975000000     0.375000000000     0.257150000000     0          
T        Si     0.171575000000     0.375000000000     0.186600000000     0          
O        O      0.000000000000     0.483700000000     0.165100000000     0          
O        O      0.125000000000     0.456650000000     0.273050000000     0          
O        O      0.076450000000     0.375000000000     0.226200000000     0          
O        O      0.055875000000     0.420000000000     0.172700000000     0          
O        O      0.072450000000     0.006300000000     0.186050000000     0          
O        O      0.053125000000     0.420100000000     0.279300000000     0          
T        Si     0.047550000000     0.472400000000     0.162200000000     0          
T        Si     0.077900000000     0.467750000000     0.279300000000     0          
T        Si     0.046025000000     0.375000000000     0.257150000000     0          
T        Si     0.078425000000     0.375000000000     0.186600000000     0          
O        O      0.055875000000     0.330000000000     0.172700000000     0          
O        O      0.072450000000     0.243700000000     0.186050000000     0          
O        O      0.061425000000     0.250000000000     0.250000000000     0          
O        O      0.053125000000     0.329900000000     0.279300000000     0          
T        Si     0.047550000000     0.277600000000     0.162200000000     0          
T        Si     0.077900000000     0.282250000000     0.279300000000     0          
O        O      0.194125000000     0.420000000000     0.172700000000     0          
O        O      0.177550000000     0.006300000000     0.186050000000     0          
O        O      0.188575000000     0.000000000000     0.250000000000     0          
O        O      0.196875000000     0.420100000000     0.279300000000     0          
T        Si     0.202450000000     0.472400000000     0.162200000000     0          
T        Si     0.172100000000     0.467750000000     0.279300000000     0          
O        O      0.055875000000     0.170000000000     0.327300000000     0          
O        O      0.072450000000     0.256300000000     0.313950000000     0          
O        O      0.053125000000     0.170100000000     0.220700000000     0          
T        Si     0.047550000000     0.222400000000     0.337800000000     0          
T        Si     0.077900000000     0.217750000000     0.220700000000     0          
O        O      0.194125000000     0.080000000000     0.327300000000     0          
O        O      0.177550000000     0.493700000000     0.313950000000     0          
O        O      0.196875000000     0.079900000000     0.220700000000     0          
T        Si     0.202450000000     0.027600000000     0.337800000000     0          
T        Si     0.172100000000     0.032250000000     0.220700000000     0          
O        O      0.125000000000     0.375000000000     0.505950000000     0          
O        O      0.000000000000     0.375000000000     0.575100000000     0          
O        O      0.125000000000     0.483700000000     0.584900000000     0          
O        O      0.000000000000     0.456650000000     0.976950000000     0          
O        O      0.048550000000     0.375000000000     0.523800000000     0          
O        O      0.069125000000     0.420000000000     0.577300000000     0          
O        O      0.062500000000     0.480750000000     0.625000000000     0          
O        O      0.052550000000     0.006300000000     0.563950000000     0          
O        O      0.063575000000     0.000000000000     0.500000000000     0          
O        O      0.071875000000     0.420100000000     0.970700000000     0          
T        Si     0.077450000000     0.472400000000     0.587800000000     0          
T        Si     0.047100000000     0.467750000000     0.970700000000     0          
T        Si     0.078975000000     0.375000000000     0.992850000000     0          
T        Si     0.046575000000     0.375000000000     0.563400000000     0          
O        O      0.125000000000     0.266300000000     0.584900000000     0          
O        O      0.000000000000     0.293350000000     0.976950000000     0          
O        O      0.201450000000     0.375000000000     0.523800000000     0          
O        O      0.180875000000     0.330000000000     0.577300000000     0          
O        O      0.187500000000     0.269250000000     0.625000000000     0          
O        O      0.197450000000     0.243700000000     0.563950000000     0          
O        O      0.186425000000     0.250000000000     0.500000000000     0          
O        O      0.178125000000     0.329900000000     0.970700000000     0          
T        Si     0.172550000000     0.277600000000     0.587800000000     0          
T        Si     0.202900000000     0.282250000000     0.970700000000     0          
T        Si     0.171025000000     0.375000000000     0.992850000000     0          
T        Si     0.203425000000     0.375000000000     0.563400000000     0          
O        O      0.125000000000     0.125000000000     0.994050000000     0          
O        O      0.000000000000     0.125000000000     0.924900000000     0          
O        O      0.125000000000     0.016300000000     0.915100000000     0          
O        O      0.000000000000     0.043350000000     0.523050000000     0          
O        O      0.048550000000     0.125000000000     0.976200000000     0          
O        O      0.069125000000     0.080000000000     0.922700000000     0          
O        O      0.062500000000     0.019250000000     0.875000000000     0          
O        O      0.052550000000     0.493700000000     0.936050000000     0          
O        O      0.071875000000     0.079900000000     0.529300000000     0          
T        Si     0.077450000000     0.027600000000     0.912200000000     0          
T        Si     0.047100000000     0.032250000000     0.529300000000     0          
T        Si     0.078975000000     0.125000000000     0.507150000000     0          
T        Si     0.046575000000     0.125000000000     0.936600000000     0          
O        O      0.125000000000     0.233700000000     0.915100000000     0          
O        O      0.000000000000     0.206650000000     0.523050000000     0          
O        O      0.201450000000     0.125000000000     0.976200000000     0          
O        O      0.180875000000     0.170000000000     0.922700000000     0          
O        O      0.187500000000     0.230750000000     0.875000000000     0          
O        O      0.197450000000     0.256300000000     0.936050000000     0          
O        O      0.178125000000     0.170100000000     0.529300000000     0          
T        Si     0.172550000000     0.222400000000     0.912200000000     0          
T        Si     0.202900000000     0.217750000000     0.529300000000     0          
T        Si     0.171025000000     0.125000000000     0.507150000000     0          
T        Si     0.203425000000     0.125000000000     0.936600000000     0          
O        O      0.180875000000     0.080000000000     0.922700000000     0          
O        O      0.187500000000     0.019250000000     0.875000000000     0          
O        O      0.197450000000     0.493700000000     0.936050000000     0          
O        O      0.186425000000     0.000000000000     0.500000000000     0          
O        O      0.178125000000     0.079900000000     0.529300000000     0          
T        Si     0.172550000000     0.027600000000     0.912200000000     0          
T        Si     0.202900000000     0.032250000000     0.529300000000     0          
O        O      0.069125000000     0.170000000000     0.922700000000     0          
O        O      0.062500000000     0.230750000000     0.875000000000     0          
O        O      0.052550000000     0.256300000000     0.936050000000     0          
O        O      0.063575000000     0.250000000000     0.500000000000     0          
O        O      0.071875000000     0.170100000000     0.529300000000     0          
T        Si     0.077450000000     0.222400000000     0.912200000000     0          
T        Si     0.047100000000     0.217750000000     0.529300000000     0          
O        O      0.180875000000     0.420000000000     0.577300000000     0          
O        O      0.187500000000     0.480750000000     0.625000000000     0          
O        O      0.197450000000     0.006300000000     0.563950000000     0          
O        O      0.178125000000     0.420100000000     0.970700000000     0          
T        Si     0.172550000000     0.472400000000     0.587800000000     0          
T        Si     0.202900000000     0.467750000000     0.970700000000     0          
O        O      0.069125000000     0.330000000000     0.577300000000     0          
O        O      0.062500000000     0.269250000000     0.625000000000     0          
O        O      0.052550000000     0.243700000000     0.563950000000     0          
O        O      0.071875000000     0.329900000000     0.970700000000     0          
T        Si     0.077450000000     0.277600000000     0.587800000000     0          
T        Si     0.047100000000     0.282250000000     0.970700000000     0          
O        O      0.000000000000     0.125000000000     0.755950000000     0          
O        O      0.125000000000     0.125000000000     0.825100000000     0          
O        O      0.000000000000     0.233700000000     0.834900000000     0          
O        O      0.125000000000     0.206650000000     0.726950000000     0          
O        O      0.173550000000     0.125000000000     0.773800000000     0          
O        O      0.194125000000     0.170000000000     0.827300000000     0          
O        O      0.177550000000     0.256300000000     0.813950000000     0          
O        O      0.188575000000     0.250000000000     0.750000000000     0          
O        O      0.196875000000     0.170100000000     0.720700000000     0          
T        Si     0.202450000000     0.222400000000     0.837800000000     0          
T        Si     0.172100000000     0.217750000000     0.720700000000     0          
T        Si     0.203975000000     0.125000000000     0.742850000000     0          
T        Si     0.171575000000     0.125000000000     0.813400000000     0          
O        O      0.000000000000     0.016300000000     0.834900000000     0          
O        O      0.125000000000     0.043350000000     0.726950000000     0          
O        O      0.076450000000     0.125000000000     0.773800000000     0          
O        O      0.055875000000     0.080000000000     0.827300000000     0          
O        O      0.072450000000     0.493700000000     0.813950000000     0          
O        O      0.061425000000     0.000000000000     0.750000000000     0          
O        O      0.053125000000     0.079900000000     0.720700000000     0          
T        Si     0.047550000000     0.027600000000     0.837800000000     0          
T        Si     0.077900000000     0.032250000000     0.720700000000     0          
T        Si     0.046025000000     0.125000000000     0.742850000000     0          
T        Si     0.078425000000     0.125000000000     0.813400000000     0          
O        O      0.000000000000     0.375000000000     0.744050000000     0          
O        O      0.125000000000     0.375000000000     0.674900000000     0          
O        O      0.000000000000     0.266300000000     0.665100000000     0          
O        O      0.125000000000     0.293350000000     0.773050000000     0          
O        O      0.173550000000     0.375000000000     0.726200000000     0          
O        O      0.194125000000     0.330000000000     0.672700000000     0          
O        O      0.177550000000     0.243700000000     0.686050000000     0          
O        O      0.196875000000     0.329900000000     0.779300000000     0          
T        Si     0.202450000000     0.277600000000     0.662200000000     0          
T        Si     0.172100000000     0.282250000000     0.779300000000     0          
T        Si     0.203975000000     0.375000000000     0.757150000000     0          
T        Si     0.171575000000     0.375000000000     0.686600000000     0          
O        O      0.000000000000     0.483700000000     0.665100000000     0          
O        O      0.125000000000     0.456650000000     0.773050000000     0          
O        O      0.076450000000     0.375000000000     0.726200000000     0          
O        O      0.055875000000     0.420000000000     0.672700000000     0          
O        O      0.072450000000     0.006300000000     0.686050000000     0          
O        O      0.053125000000     0.420100000000     0.779300000000     0          
T        Si     0.047550000000     0.472400000000     0.662200000000     0          
T        Si     0.077900000000     0.467750000000     0.779300000000     0          
T        Si     0.046025000000     0.375000000000     0.757150000000     0          
T        Si     0.078425000000     0.375000000000     0.686600000000     0          
O        O      0.055875000000     0.330000000000     0.672700000000     0          
O        O      0.072450000000     0.243700000000     0.686050000000     0          
O        O      0.061425000000     0.250000000000     0.750000000000     0          
O        O      0.053125000000     0.329900000000     0.779300000000     0          
T        Si     0.047550000000     0.277600000000     0.662200000000     0          
T        Si     0.077900000000     0.282250000000     0.779300000000     0          
O        O      0.194125000000     0.420000000000     0.672700000000     0          
O        O      0.177550000000     0.006300000000     0.686050000000     0          
O        O      0.188575000000     0.000000000000     0.750000000000     0          
O        O      0.196875000000     0.420100000000     0.779300000000     0          
T        Si     0.202450000000     0.472400000000     0.662200000000     0          
T        Si     0.172100000000     0.467750000000     0.779300000000     0          
O        O      0.055875000000     0.170000000000     0.827300000000     0          
O        O      0.072450000000     0.256300000000     0.813950000000     0          
O        O      0.053125000000     0.170100000000     0.720700000000     0          
T        Si     0.047550000000     0.222400000000     0.837800000000     0          
T        Si     0.077900000000     0.217750000000     0.720700000000     0          
O        O      0.194125000000     0.080000000000     0.827300000000     0          
O        O      0.177550000000     0.493700000000     0.813950000000     0          
O        O      0.196875000000     0.079900000000     0.720700000000     0          
T        Si     0.202450000000     0.027600000000     0.837800000000     0          
T        Si     0.172100000000     0.032250000000     0.720700000000     0          
O        O      0.125000000000     0.875000000000     0.005950000000     0          
O        O      0.000000000000     0.875000000000     0.075100000000     0          
O        O      0.125000000000     0.983700000000     0.084900000000     0          
O        O      0.000000000000     0.956650000000     0.476950000000     0          
O        O      0.048550000000     0.875000000000     0.023800000000     0          
O        O      0.069125000000     0.920000000000     0.077300000000     0          
O        O      0.062500000000     0.980750000000     0.125000000000     0          
O        O      0.052550000000     0.506300000000     0.063950000000     0          
O        O      0.063575000000     0.500000000000     0.000000000000     0          
O        O      0.071875000000     0.920100000000     0.470700000000     0          
T        Si     0.077450000000     0.972400000000     0.087800000000     0          
T        Si     0.047100000000     0.967750000000     0.470700000000     0          
T        Si     0.078975000000     0.875000000000     0.492850000000     0          
T        Si     0.046575000000     0.875000000000     0.063400000000     0          
O        O      0.125000000000     0.766300000000     0.084900000000     0          
O        O      0.000000000000     0.793350000000     0.476950000000     0          
O        O      0.201450000000     0.875000000000     0.023800000000     0          
O        O      0.180875000000     0.830000000000     0.077300000000     0          
O        O      0.187500000000     0.769250000000     0.125000000000     0          
O        O      0.197450000000     0.743700000000     0.063950000000     0          
O        O      0.186425000000     0.750000000000     0.000000000000     0          
O        O      0.178125000000     0.829900000000     0.470700000000     0          
T        Si     0.172550000000     0.777600000000     0.087800000000     0          
T        Si     0.202900000000     0.782250000000     0.470700000000     0          
T        Si     0.171025000000     0.875000000000     0.492850000000     0          
T        Si     0.203425000000     0.875000000000     0.063400000000     0          
O        O      0.125000000000     0.625000000000     0.494050000000     0          
O        O      0.000000000000     0.625000000000     0.424900000000     0          
O        O      0.125000000000     0.516300000000     0.415100000000     0          
O        O      0.000000000000     0.543350000000     0.023050000000     0          
O        O      0.048550000000     0.625000000000     0.476200000000     0          
O        O      0.069125000000     0.580000000000     0.422700000000     0          
O        O      0.062500000000     0.519250000000     0.375000000000     0          
O        O      0.052550000000     0.993700000000     0.436050000000     0          
O        O      0.071875000000     0.579900000000     0.029300000000     0          
T        Si     0.077450000000     0.527600000000     0.412200000000     0          
T        Si     0.047100000000     0.532250000000     0.029300000000     0          
T        Si     0.078975000000     0.625000000000     0.007150000000     0          
T        Si     0.046575000000     0.625000000000     0.436600000000     0          
O        O      0.125000000000     0.733700000000     0.415100000000     0          
O        O      0.000000000000     0.706650000000     0.023050000000     0          
O        O      0.201450000000     0.625000000000     0.476200000000     0          
O        O      0.180875000000     0.670000000000     0.422700000000     0          
O        O      0.187500000000     0.730750000000     0.375000000000     0          
O        O      0.197450000000     0.756300000000     0.436050000000     0          
O        O      0.178125000000     0.670100000000     0.029300000000     0          
T        Si     0.172550000000     0.722400000000     0.412200000000     0          
T        Si     0.202900000000     0.717750000000     0.029300000000     0          
T        Si     0.171025000000     0.625000000000     0.007150000000     0          
T        Si     0.203425000000     0.625000000000     0.436600000000     0          
O        O      0.180875000000     0.580000000000     0.422700000000     0          
O        O      0.187500000000     0.519250000000     0.375000000000     0          
O        O      0.197450000000     0.993700000000     0.436050000000     0          
O        O      0.186425000000     0.500000000000     0.000000000000     0          
O        O      0.178125000000     0.579900000000     0.029300000000     0          
T        Si     0.172550000000     0.527600000000     0.412200000000     0          
T        Si     0.202900000000     0.532250000000     0.029300000000     0          
O        O      0.069125000000     0.670000000000     0.422700000000     0          
O        O      0.062500000000     0.730750000000     0.375000000000     0          
O        O      0.052550000000     0.756300000000     0.436050000000     0          
O        O      0.063575000000     0.750000000000     0.000000000000     0          
O        O      0.071875000000     0.670100000000     0.029300000000     0          
T        Si     0.077450000000     0.722400000000     0.412200000000     0          
T        Si     0.047100000000     0.717750000000     0.029300000000     0          
O        O      0.180875000000     0.920000000000     0.077300000000     0          
O        O      0.187500000000     0.980750000000     0.125000000000     0          
O        O      0.197450000000     0.506300000000     0.063950000000     0          
O        O      0.178125000000     0.920100000000     0.470700000000     0          
T        Si     0.172550000000     0.972400000000     0.087800000000     0          
T        Si     0.202900000000     0.967750000000     0.470700000000     0          
O        O      0.069125000000     0.830000000000     0.077300000000     0          
O        O      0.062500000000     0.769250000000     0.125000000000     0          
O        O      0.052550000000     0.743700000000     0.063950000000     0          
O        O      0.071875000000     0.829900000000     0.470700000000     0          
T        Si     0.077450000000     0.777600000000     0.087800000000     0          
T        Si     0.047100000000     0.782250000000     0.470700000000     0          
O        O      0.000000000000     0.625000000000     0.255950000000     0          
O        O      0.125000000000     0.625000000000     0.325100000000     0          
O        O      0.000000000000     0.733700000000     0.334900000000     0          
O        O      0.125000000000     0.706650000000     0.226950000000     0          
O        O      0.173550000000     0.625000000000     0.273800000000     0          
O        O      0.194125000000     0.670000000000     0.327300000000     0          
O        O      0.177550000000     0.756300000000     0.313950000000     0          
O        O      0.188575000000     0.750000000000     0.250000000000     0          
O        O      0.196875000000     0.670100000000     0.220700000000     0          
T        Si     0.202450000000     0.722400000000     0.337800000000     0          
T        Si     0.172100000000     0.717750000000     0.220700000000     0          
T        Si     0.203975000000     0.625000000000     0.242850000000     0          
T        Si     0.171575000000     0.625000000000     0.313400000000     0          
O        O      0.000000000000     0.516300000000     0.334900000000     0          
O        O      0.125000000000     0.543350000000     0.226950000000     0          
O        O      0.076450000000     0.625000000000     0.273800000000     0          
O        O      0.055875000000     0.580000000000     0.327300000000     0          
O        O      0.072450000000     0.993700000000     0.313950000000     0          
O        O      0.061425000000     0.500000000000     0.250000000000     0          
O        O      0.053125000000     0.579900000000     0.220700000000     0          
T        Si     0.047550000000     0.527600000000     0.337800000000     0          
T        Si     0.077900000000     0.532250000000     0.220700000000     0          
T        Si     0.046025000000     0.625000000000     0.242850000000     0          
T        Si     0.078425000000     0.625000000000     0.313400000000     0          
O        O      0.000000000000     0.875000000000     0.244050000000     0          
O        O      0.125000000000     0.875000000000     0.174900000000     0          
O        O      0.000000000000     0.766300000000     0.165100000000     0          
O        O      0.125000000000     0.793350000000     0.273050000000     0          
O        O      0.173550000000     0.875000000000     0.226200000000     0          
O        O      0.194125000000     0.830000000000     0.172700000000     0          
O        O      0.177550000000     0.743700000000     0.186050000000     0          
O        O      0.196875000000     0.829900000000     0.279300000000     0          
T        Si     0.202450000000     0.777600000000     0.162200000000     0          
T        Si     0.172100000000     0.782250000000     0.279300000000     0          
T        Si     0.203975000000     0.875000000000     0.257150000000     0          
T        Si     0.171575000000     0.875000000000     0.186600000000     0          
O        O      0.000000000000     0.983700000000     0.165100000000     0          
O        O      0.125000000000     0.956650000000     0.273050000000     0          
O        O      0.076450000000     0.875000000000     0.226200000000     0          
O        O      0.055875000000     0.920000000000     0.172700000000     0          
O        O      0.072450000000     0.506300000000     0.186050000000     0          
O        O      0.053125000000     0.920100000000     0.279300000000     0          
T        Si     0.047550000000     0.972400000000     0.162200000000     0          
T        Si     0.077900000000     0.967750000000     0.279300000000     0          
T        Si     0.046025000000     0.875000000000     0.257150000000     0          
T        Si     0.078425000000     0.875000000000     0.186600000000     0          
O        O      0.055875000000     0.830000000000     0.172700000000     0          
O        O      0.072450000000     0.743700000000     0.186050000000     0          
O        O      0.061425000000     0.750000000000     0.250000000000     0          
O        O      0.053125000000     0.829900000000     0.279300000000     0          
T        Si     0.047550000000     0.777600000000     0.162200000000     0          
T        Si     0.077900000000     0.782250000000     0.279300000000     0          
O        O      0.194125000000     0.920000000000     0.172700000000     0          
O        O      0.177550000000     0.506300000000     0.186050000000     0          
O        O      0.188575000000     0.500000000000     0.250000000000     0          
O        O      0.196875000000     0.920100000000     0.279300000000     0          
T        Si     0.202450000000     0.972400000000     0.162200000000     0          
T        Si     0.172100000000     0.967750000000     0.279300000000     0          
O        O      0.055875000000     0.670000000000     0.327300000000     0          
O        O      0.072450000000     0.756300000000     0.313950000000     0          
O        O      0.053125000000     0.670100000000     0.220700000000     0          
T        Si     0.047550000000     0.722400000000     0.337800000000     0          
T        Si     0.077900000000     0.717750000000     0.220700000000     0          
O        O      0.194125000000     0.580000000000     0.327300000000     0          
O        O      0.177550000000     0.993700000000     0.313950000000     0          
O        O      0.196875000000     0.579900000000     0.220700000000     0          
T        Si     0.202450000000     0.527600000000     0.337800000000     0          
T        Si     0.172100000000     0.532250000000     0.220700000000     0          
O        O      0.125000000000     0.875000000000     0.505950000000     0          
O        O      0.000000000000     0.875000000000     0.575100000000     0          
O        O      0.125000000000     0.983700000000     0.584900000000     0          
O        O      0.000000000000     0.956650000000     0.976950000000     0          
O        O      0.048550000000     0.875000000000     0.523800000000     0          
O        O      0.069125000000     0.920000000000     0.577300000000     0          
O        O      0.062500000000     0.980750000000     0.625000000000     0          
O        O      0.052550000000     0.506300000000     0.563950000000     0          
O        O      0.063575000000     0.500000000000     0.500000000000     0          
O        O      0.071875000000     0.920100000000     0.970700000000     0          
T        Si     0.077450000000     0.972400000000     0.587800000000     0          
T        Si     0.047100000000     0.967750000000     0.970700000000     0          
T        Si     0.078975000000     0.875000000000     0.992850000000     0          
T        Si     0.046575000000     0.875000000000     0.563400000000     0          
O        O      0.125000000000     0.766300000000     0.584900000000     0          
O        O      0.000000000000     0.793350000000     0.976950000000     0          
O        O      0.201450000000     0.875000000000     0.523800000000     0          
O        O      0.180875000000     0.830000000000     0.577300000000     0          
O        O      0.187500000000     0.769250000000     0.625000000000     0          
O        O      0.197450000000     0.743700000000     0.563950000000     0          
O        O      0.186425000000     0.750000000000     0.500000000000     0          
O        O      0.178125000000     0.829900000000     0.970700000000     0          
T        Si     0.172550000000     0.777600000000     0.587800000000     0          
T        Si     0.202900000000     0.782250000000     0.970700000000     0          
T        Si     0.171025000000     0.875000000000     0.992850000000     0          
T        Si     0.203425000000     0.875000000000     0.563400000000     0          
O        O      0.125000000000     0.625000000000     0.994050000000     0          
O        O      0.000000000000     0.625000000000     0.924900000000     0          
O        O      0.125000000000     0.516300000000     0.915100000000     0          
O        O      0.000000000000     0.543350000000     0.523050000000     0          
O        O      0.048550000000     0.625000000000     0.976200000000     0          
O        O      0.069125000000     0.580000000000     0.922700000000     0          
O        O      0.062500000000     0.519250000000     0.875000000000     0          
O        O      0.052550000000     0.993700000000     0.936050000000     0          
O        O      0.071875000000     0.579900000000     0.529300000000     0          
T        Si     0.077450000000     0.527600000000     0.912200000000     0          
T        Si     0.047100000000     0.532250000000     0.529300000000     0          
T        Si     0.078975000000     0.625000000000     0.507150000000     0          
T        Si     0.046575000000     0.625000000000     0.936600000000     0          
O        O      0.125000000000     0.733700000000     0.915100000000     0          
O        O      0.000000000000     0.706650000000     0.523050000000     0          
O        O      0.201450000000     0.625000000000     0.976200000000     0          
O        O      0.180875000000     0.670000000000     0.922700000000     0          
O        O      0.187500000000     0.730750000000     0.875000000000     0          
O        O      0.197450000000     0.756300000000     0.936050000000     0          
O        O      0.178125000000     0.670100000000     0.529300000000     0          
T        Si     0.172550000000     0.722400000000     0.912200000000     0          
T        Si     0.202900000000     0.717750000000     0.529300000000     0          
T        Si     0.171025000000     0.625000000000     0.507150000000     0          
T        Si     0.203425000000     0.625000000000     0.936600000000     0          
O        O      0.180875000000     0.580000000000     0.922700000000     0          
O        O      0.187500000000     0.519250000000     0.875000000000     0          
O        O      0.197450000000     0.993700000000     0.936050000000     0          
O        O      0.186425000000     0.500000000000     0.500000000000     0          
O        O      0.178125000000     0.579900000000     0.529300000000     0          
T        Si     0.172550000000     0.527600000000     0.912200000000     0          
T        Si     0.202900000000     0.532250000000     0.529300000000     0          
O        O      0.069125000000     0.670000000000     0.922700000000     0          
O        O      0.062500000000     0.730750000000     0.875000000000     0          
O        O      0.052550000000     0.756300000000     0.936050000000     0          
O        O      0.063575000000     0.750000000000     0.500000000000     0          
O        O      0.071875000000     0.670100000000     0.529300000000     0          
T        Si     0.077450000000     0.722400000000     0.912200000000     0          
T        Si     0.047100000000     0.717750000000     0.529300000000     0          
O        O      0.180875000000     0.920000000000     0.577300000000     0          
O        O      0.187500000000     0.980750000000     0.625000000000     0          
O        O      0.197450000000     0.506300000000     0.563950000000     0          
O        O      0.178125000000     0.920100000000     0.970700000000     0          
T        Si     0.172550000000     0.972400000000     0.587800000000     0          
T        Si     0.202900000000     0.967750000000     0.970700000000     0          
O        O      0.069125000000     0.830000000000     0.577300000000     0          
O        O      0.062500000000     0.769250000000     0.625000000000     0          
O        O      0.052550000000     0.743700000000     0.563950000000     0          
O        O      0.071875000000     0.829900000000     0.970700000000     0          
T        Si     0.077450000000     0.777600000000     0.587800000000     0          
T        Si     0.047100000000     0.782250000000     0.970700000000     0          
O        O      0.000000000000     0.625000000000     0.755950000000     0          
O        O      0.125000000000     0.625000000000     0.825100000000     0          
O        O      0.000000000000     0.733700000000     0.834900000000     0          
O        O      0.125000000000     0.706650000000     0.726950000000     0          
O        O      0.173550000000     0.625000000000     0.773800000000     0          
O        O      0.194125000000     0.670000000000     0.827300000000     0          
O        O      0.177550000000     0.756300000000     0.813950000000     0          
O        O      0.188575000000     0.750000000000     0.750000000000     0          
O        O      0.196875000000     0.670100000000     0.720700000000     0          
T        Si     0.202450000000     0.722400000000     0.837800000000     0          
T        Si     0.172100000000     0.717750000000     0.720700000000     0          
T        Si     0.203975000000     0.625000000000     0.742850000000     0          
T        Si     0.171575000000     0.625000000000     0.813400000000     0          
O        O      0.000000000000     0.516300000000     0.834900000000     0          
O        O      0.125000000000     0.543350000000     0.726950000000     0          
O        O      0.076450000000     0.625000000000     0.773800000000     0          
O        O      0.055875000000     0.580000000000     0.827300000000     0          
O        O      0.072450000000     0.993700000000     0.813950000000     0          
O        O      0.061425000000     0.500000000000     0.750000000000     0          
O        O      0.053125000000     0.579900000000     0.720700000000     0          
T        Si     0.047550000000     0.527600000000     0.837800000000     0          
T        Si     0.077900000000     0.532250000000     0.720700000000     0          
T        Si     0.046025000000     0.625000000000     0.742850000000     0          
T        Si     0.078425000000     0.625000000000     0.813400000000     0          
O        O      0.000000000000     0.875000000000     0.744050000000     0          
O        O      0.125000000000     0.875000000000     0.674900000000     0          
O        O      0.000000000000     0.766300000000     0.665100000000     0          
O        O      0.125000000000     0.793350000000     0.773050000000     0          
O        O      0.173550000000     0.875000000000     0.726200000000     0          
O        O      0.194125000000     0.830000000000     0.672700000000     0          
O        O      0.177550000000     0.743700000000     0.686050000000     0          
O        O      0.196875000000     0.829900000000     0.779300000000     0          
T        Si     0.202450000000     0.777600000000     0.662200000000     0          
T        Si     0.172100000000     0.782250000000     0.779300000000     0          
T        Si     0.203975000000     0.875000000000     0.757150000000     0          
T        Si     0.171575000000     0.875000000000     0.686600000000     0          
O        O      0.000000000000     0.983700000000     0.665100000000     0          
O        O      0.125000000000     0.956650000000     0.773050000000     0          
O        O      0.076450000000     0.875000000000     0.726200000000     0          
O        O      0.055875000000     0.920000000000     0.672700000000     0          
O        O      0.072450000000     0.506300000000     0.686050000000     0          
O        O      0.053125000000     0.920100000000     0.779300000000     0          
T        Si     0.047550000000     0.972400000000     0.662200000000     0          
T        Si     0.077900000000     0.967750000000     0.779300000000     0          
T        Si     0.046025000000     0.875000000000     0.757150000000     0          
T        Si     0.078425000000     0.875000000000     0.686600000000     0          
O        O      0.055875000000     0.830000000000     0.672700000000     0          
O        O      0.072450000000     0.743700000000     0.686050000000     0          
O        O      0.061425000000     0.750000000000     0.750000000000     0          
O        O      0.053125000000     0.829900000000     0.779300000000     0          
T        Si     0.047550000000     0.777600000000     0.662200000000     0          
T        Si     0.077900000000     0.782250000000     0.779300000000     0          
O        O      0.194125000000     0.920000000000     0.672700000000     0          
O        O      0.177550000000     0.506300000000     0.686050000000     0          
O        O      0.188575000000     0.500000000000     0.750000000000     0          
O        O      0.196875000000     0.920100000000     0.779300000000     0          
T        Si     0.202450000000     0.972400000000     0.662200000000     0          
T        Si     0.172100000000     0.967750000000     0.779300000000     0          
O        O      0.055875000000     0.670000000000     0.827300000000     0          
O        O      0.072450000000     0.756300000000     0.813950000000     0          
O        O      0.053125000000     0.670100000000     0.720700000000     0          
T        Si     0.047550000000     0.722400000000     0.837800000000     0          
T        Si     0.077900000000     0.717750000000     0.720700000000     0          
O        O      0.194125000000     0.580000000000     0.827300000000     0          
O        O      0.177550000000     0.993700000000     0.813950000000     0          
O        O      0.196875000000     0.579900000000     0.720700000000     0          
T        Si     0.202450000000     0.527600000000     0.837800000000     0          
T        Si     0.172100000000     0.532250000000     0.720700000000     0          
O        O      0.375000000000     0.375000000000     0.005950000000     0          
O        O      0.250000000000     0.375000000000     0.075100000000     0          
O        O      0.375000000000     0.483700000000     0.084900000000     0          
O        O      0.250000000000     0.456650000000     0.476950000000     0          
O        O      0.298550000000     0.375000000000     0.023800000000     0          
O        O      0.319125000000     0.420000000000     0.077300000000     0          
O        O      0.312500000000     0.480750000000     0.125000000000     0          
O        O      0.302550000000     0.006300000000     0.063950000000     0          
O        O      0.313575000000     0.000000000000     0.000000000000     0          
O        O      0.321875000000     0.420100000000     0.470700000000     0          
T        Si     0.327450000000     0.472400000000     0.087800000000     0          
T        Si     0.297100000000     0.467750000000     0.470700000000     0          
T        Si     0.328975000000     0.375000000000     0.492850000000     0          
T        Si     0.296575000000     0.375000000000     0.063400000000     0          
O        O      0.375000000000     0.266300000000     0.084900000000     0          
O        O      0.250000000000     0.293350000000     0.476950000000     0          
O        O      0.451450000000     0.375000000000     0.023800000000     0          
O        O      0.430875000000     0.330000000000     0.077300000000     0          
O        O      0.437500000000     0.269250000000     0.125000000000     0          
O        O      0.447450000000     0.243700000000     0.063950000000     0          
O        O      0.436425000000     0.250000000000     0.000000000000     0          
O        O      0.428125000000     0.329900000000     0.470700000000     0          
T        Si     0.422550000000     0.277600000000     0.087800000000     0          
T        Si     0.452900000000     0.282250000000     0.470700000000     0          
T        Si     0.421025000000     0.375000000000     0.492850000000     0          
T        Si     0.453425000000     0.375000000000     0.063400000000     0          
O        O      0.375000000000     0.125000000000     0.494050000000     0          
O        O      0.250000000000     0.125000000000     0.424900000000     0          
O        O      0.375000000000     0.016300000000     0.415100000000     0          
O        O      0.250000000000     0.043350000000     0.023050000000     0          
O        O      0.298550000000     0.125000000000     0.476200000000     0          
O        O      0.319125000000     0.080000000000     0.422700000000     0          
O        O      0.312500000000     0.019250000000     0.375000000000     0          
O        O      0.302550000000     0.493700000000     0.436050000000     0          
O        O      0.321875000000     0.079900000000     0.029300000000     0          
T        Si     0.327450000000     0.027600000000     0.412200000000     0          
T        Si     0.297100000000     0.032250000000     0.029300000000     0          
T        Si     0.328975000000     0.125000000000     0.007150000000     0          
T        Si     0.296575000000     0.125000000000     0.436600000000     0          
O        O      0.375000000000     0.233700000000     0.415100000000     0          
O        O      0.250000000000     0.206650000000     0.023050000000     0          
O        O      0.451450000000     0.125000000000     0.476200000000     0          
O        O      0.430875000000     0.170000000000     0.422700000000     0          
O        O      0.437500000000     0.230750000000     0.375000000000     0          
O        O      0.447450000000     0.256300000000     0.436050000000     0          
O        O      0.428125000000     0.170100000000     0.029300000000     0          
T        Si     0.422550000000     0.222400000000     0.412200000000     0          
T        Si     0.452900000000     0.217750000000     0.029300000000     0          
T        Si     0.421025000000     0.125000000000     0.007150000000     0          
T        Si     0.453425000000     0.125000000000     0.436600000000     0          
O        O      0.430875000000     0.080000000000     0.422700000000     0          
O        O      0.437500000000     0.019250000000     0.375000000000     0          
O        O      0.447450000000     0.493700000000     0.436050000000     0          
O        O      0.436425000000     0.000000000000     0.000000000000     0          
O        O      0.428125000000     0.079900000000     0.029300000000     0          
T        Si     0.422550000000     0.027600000000     0.412200000000     0          
T        Si     0.452900000000     0.032250000000     0.029300000000     0          
O        O      0.319125000000     0.170000000000     0.422700000000     0          
O        O      0.312500000000     0.230750000000     0.375000000000     0          
O        O      0.302550000000     0.256300000000     0.436050000000     0          
O        O      0.313575000000     0.250000000000     0.000000000000     0          
O        O      0.321875000000     0.170100000000     0.029300000000     0          
T        Si     0.327450000000     0.222400000000     0.412200000000     0          
T        Si     0.297100000000     0.217750000000     0.029300000000     0          
O        O      0.430875000000     0.420000000000     0.077300000000     0          
O        O      0.437500000000     0.480750000000     0.125000000000     0          
O        O      0.447450000000     0.006300000000     0.063950000000     0          
O        O      0.428125000000     0.420100000000     0.470700000000     0          
T        Si     0.422550000000     0.472400000000     0.087800000000     0          
T        Si     0.452900000000     0.467750000000     0.470700000000     0          
O        O      0.319125000000     0.330000000000     0.077300000000     0          
O        O      0.312500000000     0.269250000000     0.125000000000     0          
O        O      0.302550000000     0.243700000000     0.063950000000     0          
O        O      0.321875000000     0.329900000000     0.470700000000     0          
T        Si     0.327450000000     0.277600000000     0.087800000000     0          
T        Si     0.297100000000     0.282250000000     0.470700000000     0          
O        O      0.250000000000     0.125000000000     0.255950000000     0          
O        O      0.375000000000     0.125000000000     0.325100000000     0          
O        O      0.250000000000     0.233700000000     0.334900000000     0          
O        O      0.375000000000     0.206650000000     0.226950000000     0          
O        O      0.423550000000     0.125000000000     0.273800000000     0          
O        O      0.444125000000     0.170000000000     0.327300000000     0          
O        O      0.427550000000     0.256300000000     0.313950000000     0          
O        O      0.438575000000     0.250000000000     0.250000000000     0          
O        O      0.446875000000     0.170100000000     0.220700000000     0          
T        Si     0.452450000000     0.222400000000     0.337800000000     0          
T        Si     0.422100000000     0.217750000000     0.220700000000     0          
T        Si     0.453975000000     0.125000000000     0.242850000000     0          
T        Si     0.421575000000     0.125000000000     0.313400000000     0          
O        O      0.250000000000     0.016300000000     0.334900000000     0          
O        O      0.375000000000     0.043350000000     0.226950000000     0          
O        O      0.326450000000     0.125000000000     0.273800000000     0          
O        O      0.305875000000     0.080000000000     0.327300000000     0          
O        O      0.322450000000     0.493700000000     0.313950000000     0          
O        O      0.311425000000     0.000000000000     0.250000000000     0          
O        O      0.303125000000     0.079900000000     0.220700000000     0          
T        Si     0.297550000000     0.027600000000     0.337800000000     0          
T        Si     0.327900000000     0.032250000000     0.220700000000     0          
T        Si     0.296025000000     0.125000000000     0.242850000000     0          
T        Si     0.328425000000     0.125000000000     0.313400000000     0          
O        O      0.250000000000     0.375000000000     0.244050000000     0          
O        O      0.375000000000     0.375000000000     0.174900000000     0          
O        O      0.250000000000     0.266300000000     0.165100000000     0          
O        O      0.375000000000     0.293350000000     0.273050000000     0          
O        O      0.423550000000     0.375000000000     0.226200000000     0          
O        O      0.444125000000     0.330000000000     0.172700000000     0          
O        O      0.427550000000     0.243700000000     0.186050000000     0          
O        O      0.446875000000     0.329900000000     0.279300000000     0          
T        Si     0.452450000000     0.277600000000     0.162200000000     0          
T        Si     0.422100000000     0.282250000000     0.279300000000     0          
T        Si     0.453975000000     0.375000000000     0.257150000000     0          
T        Si     0.421575000000     0.375000000000     0.186600000000     0          
O        O      0.250000000000     0.483700000000     0.165100000000     0          
O        O      0.375000000000     0.456650000000     0.273050000000     0          
O        O      0.326450000000     0.375000000000     0.226200000000     0          
O        O      0.305875000000     0.420000000000     0.172700000000     0          
O        O      0.322450000000     0.006300000000     0.186050000000     0          
O        O      0.303125000000     0.420100000000     0.279300000000     0          
T        Si     0.297550000000     0.472400000000     0.162200000000     0          
T        Si     0.327900000000     0.467750000000     0.279300000000     0          
T        Si     0.296025000000     0.375000000000     0.257150000000     0          
T        Si     0.328425000000     0.375000000000     0.186600000000     0          
O        O      0.305875000000     0.330000000000     0.172700000000     0          
O        O      0.322450000000     0.243700000000     0.186050000000     0          
O        O      0.311425000000     0.250000000000     0.250000000000     0          
O        O      0.303125000000     0.329900000000     0.279300000000     0          
T        Si     0.297550000000     0.277600000000     0.162200000000     0          
T        Si     0.327900000000     0.282250000000     0.279300000000     0          
O        O      0.444125000000     0.420000000000     0.172700000000     0          
O        O      0.427550000000     0.006300000000     0.186050000000     0          
O        O      0.438575000000     0.000000000000     0.250000000000     0          
O        O      0.446875000000     0.420100000000     0.279300000000     0          
T        Si     0.452450000000     0.472400000000     0.162200000000     0          
T        Si     0.422100000000     0.467750000000     0.279300000000     0          
O        O      0.305875000000     0.170000000000     0.327300000000     0          
O        O      0.322450000000     0.256300000000     0.313950000000     0          
O        O      0.303125000000     0.170100000000     0.220700000000     0          
T        Si     0.297550000000     0.222400000000     0.337800000000     0          
T        Si     0.327900000000     0.217750000000     0.220700000000     0          
O        O      0.444125000000     0.080000000000     0.327300000000     0          
O        O      0.427550000000     0.493700000000     0.313950000000     0          
O        O      0.446875000000     0.079900000000     0.220700000000     0          
T        Si     0.452450000000     0.027600000000     0.337800000000     0          
T        Si     0.422100000000     0.032250000000     0.220700000000     0          
O        O      0.375000000000     0.375000000000     0.505950000000     0          
O        O      0.250000000000     0.375000000000     0.575100000000     0          
O        O      0.375000000000     0.483700000000     0.584900000000     0          
O        O      0.250000000000     0.456650000000     0.976950000000     0          
O        O      0.298550000000     0.375000000000     0.523800000000     0          
O        O      0.319125000000     0.420000000000     0.577300000000     0          
O        O      0.312500000000     0.480750000000     0.625000000000     0          
O        O      0.302550000000     0.006300000000     0.563950000000     0          
O        O      0.313575000000     0.000000000000     0.500000000000     0          
O        O      0.321875000000     0.420100000000     0.970700000000     0          
T        Si     0.327450000000     0.472400000000     0.587800000000     0          
T        Si     0.297100000000     0.467750000000     0.970700000000     0          
T        Si     0.328975000000     0.375000000000     0.992850000000     0          
T        Si     0.296575000000     0.375000000000     0.563400000000     0          
O        O      0.375000000000     0.266300000000     0.584900000000     0          
O        O      0.250000000000     0.293350000000     0.976950000000     0          
O        O      0.451450000000     0.375000000000     0.523800000000     0          
O        O      0.430875000000     0.330000000000     0.577300000000     0          
O        O      0.437500000000     0.269250000000     0.625000000000     0          
O        O      0.447450000000     0.243700000000     0.563950000000     0          
O        O      0.436425000000     0.250000000000     0.500000000000     0          
O        O      0.428125000000     0.329900000000     0.970700000000     0          
T        Si     0.422550000000     0.277600000000     0.587800000000     0          
T        Si     0.452900000000     0.282250000000     0.970700000000     0          
T        Si     0.421025000000     0.375000000000     0.992850000000     0          
T        Si     0.453425000000     0.375000000000     0.563400000000     0          
O        O      0.375000000000     0.125000000000     0.994050000000     0          
O        O      0.250000000000     0.125000000000     0.924900000000     0          
O        O      0.375000000000     0.016300000000     0.915100000000     0          
O        O      0.250000000000     0.043350000000     0.523050000000     0          
O        O      0.298550000000     0.125000000000     0.976200000000     0          
O        O      0.319125000000     0.080000000000     0.922700000000     0          
O        O      0.312500000000     0.019250000000     0.875000000000     0          
O        O      0.302550000000     0.493700000000     0.936050000000     0          
O        O      0.321875000000     0.079900000000     0.529300000000     0          
T        Si     0.327450000000     0.027600000000     0.912200000000     0          
T        Si     0.297100000000     0.032250000000     0.529300000000     0          
T        Si     0.328975000000     0.125000000000     0.507150000000     0          
T        Si     0.296575000000     0.125000000000     0.936600000000     0          
O        O      0.375000000000     0.233700000000     0.915100000000     0          
O        O      0.250000000000     0.206650000000     0.523050000000     0          
O        O      0.451450000000     0.125000000000     0.976200000000     0          
O        O      0.430875000000     0.170000000000     0.922700000000     0          
O        O      0.437500000000     0.230750000000     0.875000000000     0          
O        O      0.447450000000     0.256300000000     0.936050000000     0          
O        O      0.428125000000     0.170100000000     0.529300000000     0          
T        Si     0.422550000000     0.222400000000     0.912200000000     0          
T        Si     0.452900000000     0.217750000000     0.529300000000     0          
T        Si     0.421025000000     0.125000000000     0.507150000000     0          
T        Si     0.453425000000     0.125000000000     0.936600000000     0          
O        O      0.430875000000     0.080000000000     0.922700000000     0          
O        O      0.437500000000     0.019250000000     0.875000000000     0          
O        O      0.447450000000     0.493700000000     0.936050000000     0          
O        O      0.436425000000     0.000000000000     0.500000000000     0          
O        O      0.428125000000     0.079900000000     0.529300000000     0          
T        Si     0.422550000000     0.027600000000     0.912200000000     0          
T        Si     0.452900000000     0.032250000000     0.529300000000     0          
O        O      0.319125000000     0.170000000000     0.922700000000     0          
O        O      0.312500000000     0.230750000000     0.875000000000     0          
O        O      0.302550000000     0.256300000000     0.936050000000     0          
O        O      0.313575000000     0.250000000000     0.500000000000     0          
O        O      0.321875000000     0.170100000000     0.529300000000     0          
T        Si     0.327450000000     0.222400000000     0.912200000000     0          
T        Si     0.297100000000     0.217750000000     0.529300000000     0          
O        O      0.430875000000     0.420000000000     0.577300000000     0          
O        O      0.437500000000     0.480750000000     0.625000000000     0          
O        O      0.447450000000     0.006300000000     0.563950000000     0          
O        O      0.428125000000     0.420100000000     0.970700000000     0          
T        Si     0.422550000000     0.472400000000     0.587800000000     0          
T        Si     0.452900000000     0.467750000000     0.970700000000     0          
O        O      0.319125000000     0.330000000000     0.577300000000     0          
O        O      0.312500000000     0.269250000000     0.625000000000     0          
O        O      0.302550000000     0.243700000000     0.563950000000     0          
O        O      0.321875000000     0.329900000000     0.970700000000     0          
T        Si     0.327450000000     0.277600000000     0.587800000000     0          
T        Si     0.297100000000     0.282250000000     0.970700000000     0          
O        O      0.250000000000     0.125000000000     0.755950000000     0          
O        O      0.375000000000     0.125000000000     0.825100000000     0          
O        O      0.250000000000     0.233700000000     0.834900000000     0          
O        O      0.375000000000     0.206650000000     0.726950000000     0          
O        O      0.423550000000     0.125000000000     0.773800000000     0          
O        O      0.444125000000     0.170000000000     0.827300000000     0          
O        O      0.427550000000     0.256300000000     0.813950000000     0          
O        O      0.438575000000     0.250000000000     0.750000000000     0          
O        O      0.446875000000     0.170100000000     0.720700000000     0          
T        Si     0.452450000000     0.222400000000     0.837800000000     0          
T        Si     0.422100000000     0.217750000000     0.720700000000     0          
T        Si     0.453975000000     0.125000000000     0.742850000000     0          
T        Si     0.421575000000     0.125000000000     0.813400000000     0          
O        O      0.250000000000     0.016300000000     0.834900000000     0          
O        O      0.375000000000     0.043350000000     0.726950000000     0          
O        O      0.326450000000     0.125000000000     0.773800000000     0          
O        O      0.305875000000     0.080000000000     0.827300000000     0          
O        O      0.322450000000     0.493700000000     0.813950000000     0          
O        O      0.311425000000     0.000000000000     0.750000000000     0          
O        O      0.303125000000     0.079900000000     0.720700000000     0          
T        Si     0.297550000000     0.027600000000     0.837800000000     0          
T        Si     0.327900000000     0.032250000000     0.720700000000     0          
T        Si     0.296025000000     0.125000000000     0.742850000000     0          
T        Si     0.328425000000     0.125000000000     0.813400000000     0          
O        O      0.250000000000     0.375000000000     0.744050000000     0          
O        O      0.375000000000     0.375000000000     0.674900000000     0          
O        O      0.250000000000     0.266300000000     0.665100000000     0          
O        O      0.375000000000     0.293350000000     0.773050000000     0          
O        O      0.423550000000     0.375000000000     0.726200000000     0          
O        O      0.444125000000     0.330000000000     0.672700000000     0          
O        O      0.427550000000     0.243700000000     0.686050000000     0          
O        O      0.446875000000     0.329900000000     0.779300000000     0          
T        Si     0.452450000000     0.277600000000     0.662200000000     0          
T        Si     0.422100000000     0.282250000000     0.779300000000     0          
T        Si     0.453975000000     0.375000000000     0.757150000000     0          
T        Si     0.421575000000     0.375000000000     0.686600000000     0          
O        O      0.250000000000     0.483700000000     0.665100000000     0          
O        O      0.375000000000     0.456650000000     0.773050000000     0          
O        O      0.326450000000     0.375000000000     0.726200000000     0          
O        O      0.305875000000     0.420000000000     0.672700000000     0          
O        O      0.322450000000     0.006300000000     0.686050000000     0          
O        O      0.303125000000     0.420100000000     0.779300000000     0          
T        Si     0.297550000000     0.472400000000     0.662200000000     0          
T        Si     0.327900000000     0.467750000000     0.779300000000     0          
T        Si     0.296025000000     0.375000000000     0.757150000000     0          
T        Si     0.328425000000     0.375000000000     0.686600000000     0          
O        O      0.305875000000     0.330000000000     0.672700000000     0          
O        O      0.322450000000     0.243700000000     0.686050000000     0          
O        O      0.311425000000     0.250000000000     0.750000000000     0          
O        O      0.303125000000     0.329900000000     0.779300000000     0          
T        Si     0.297550000000     0.277600000000     0.662200000000     0          
T        Si     0.327900000000     0.282250000000     0.779300000000     0          
O        O      0.444125000000     0.420000000000     0.672700000000     0          
O        O      0.427550000000     0.006300000000     0.686050000000     0          
O        O      0.438575000000     0.000000000000     0.750000000000     0          
O        O      0.446875000000     0.420100000000     0.779300000000     0          
T        Si     0.452450000000     0.472400000000     0.662200000000     0          
T        Si     0.422100000000     0.467750000000     0.779300000000     0          
O        O      0.305875000000     0.170000000000     0.827300000000     0          
O        O      0.322450000000     0.256300000000     0.813950000000     0          
O        O      0.303125000000     0.170100000000     0.720700000000     0          
T        Si     0.297550000000     0.222400000000     0.837800000000     0          
T        Si     0.327900000000     0.217750000000     0.720700000000     0          
O        O      0.444125000000     0.080000000000     0.827300000000     0          
O        O      0.427550000000     0.493700000000     0.813950000000     0          
O        O      0.446875000000     0.079900000000     0.720700000000     0          
T        Si     0.452450000000     0.027600000000     0.837800000000     0          
T        Si     0.422100000000     0.032250000000     0.720700000000     0          
O        O      0.375000000000     0.875000000000     0.005950000000     0          
O        O      0.250000000000     0.875000000000     0.075100000000     0          
O        O      0.375000000000     0.983700000000     0.084900000000     0          
O        O      0.250000000000     0.956650000000     0.476950000000     0          
O        O      0.298550000000     0.875000000000     0.023800000000     0          
O        O      0.319125000000     0.920000000000     0.077300000000     0          
O        O      0.312500000000     0.980750000000     0.125000000000     0          
O        O      0.302550000000     0.506300000000     0.063950000000     0          
O        O      0.313575000000     0.500000000000     0.000000000000     0          
O        O      0.321875000000     0.920100000000     0.470700000000     0          
T        Si     0.327450000000     0.972400000000     0.087800000000     0          
T        Si     0.297100000000     0.967750000000     0.470700000000     0          
T        Si     0.328975000000     0.875000000000     0.492850000000     0          
T        Si     0.296575000000     0.875000000000     0.063400000000     0          
O        O      0.375000000000     0.766300000000     0.084900000000     0          
O        O      0.250000000000     0.793350000000     0.476950000000     0          
O        O      0.451450000000     0.875000000000     0.023800000000     0          
O        O      0.430875000000     0.830000000000     0.077300000000     0          
O        O      0.437500000000     0.769250000000     0.125000000000     0          
O        O      0.447450000000     0.743700000000     0.063950000000     0          
O        O      0.436425000000     0.750000000000     0.000000000000     0          
O        O      0.428125000000     0.829900000000     0.470700000000     0          
T        Si     0.422550000000     0.777600000000     0.087800000000     0          
T        Si     0.452900000000     0.782250000000     0.470700000000     0          
T        Si     0.421025000000     0.875000000000     0.492850000000     0          
T        Si     0.453425000000     0.875000000000     0.063400000000     0          
O        O      0.375000000000     0.625000000000     0.494050000000     0          
O        O      0.250000000000     0.625000000000     0.424900000000     0          
O        O      0.375000000000     0.516300000000     0.415100000000     0          
O        O      0.250000000000     0.543350000000     0.023050000000     0          
O        O      0.298550000000     0.625000000000     0.476200000000     0          
O        O      0.319125000000     0.580000000000     0.422700000000     0          
O        O      0.312500000000     0.519250000000     0.375000000000     0          
O        O      0.302550000000     0.993700000000     0.436050000000     0          
O        O      0.321875000000     0.579900000000     0.029300000000     0          
T        Si     0.327450000000     0.527600000000     0.412200000000     0          
T        Si     0.297100000000     0.532250000000     0.029300000000     0          
T        Si     0.328975000000     0.625000000000     0.007150000000     0          
T        Si     0.296575000000     0.625000000000     0.436600000000     0          
O        O      0.375000000000     0.733700000000     0.415100000000     0          
O        O      0.250000000000     0.706650000000     0.023050000000     0          
O        O      0.451450000000     0.625000000000     0.476200000000     0          
O        O      0.430875000000     0.670000000000     0.422700000000     0          
O        O      0.437500000000     0.730750000000     0.375000000000     0          
O        O      0.447450000000     0.756300000000     0.436050000000     0          
O        O      0.428125000000     0.670100000000     0.029300000000     0          
T        Si     0.422550000000     0.722400000000     0.412200000000     0          
T        Si     0.452900000000     0.717750000000     0.029300000000     0          
T        Si     0.421025000000     0.625000000000     0.007150000000     0          
T        Si     0.453425000000     0.625000000000     0.436600000000     0          
O        O      0.430875000000     0.580000000000     0.422700000000     0          
O        O      0.437500000000     0.519250000000     0.375000000000     0          
O        O      0.447450000000     0.993700000000     0.436050000000     0          
O        O      0.436425000000     0.500000000000     0.000000000000     0          
O        O      0.428125000000     0.579900000000     0.029300000000     0          
T        Si     0.422550000000     0.527600000000     0.412200000000     0          
T        Si     0.452900000000     0.532250000000     0.029300000000     0          
O        O      0.319125000000     0.670000000000     0.422700000000     0          
O        O      0.312500000000     0.730750000000     0.375000000000     0          
O        O      0.302550000000     0.756300000000     0.436050000000     0          
O        O      0.313575000000     0.750000000000     0.000000000000     0          
O        O      0.321875000000     0.670100000000     0.029300000000     0          
T        Si     0.327450000000     0.722400000000     0.412200000000     0          
T        Si     0.297100000000     0.717750000000     0.029300000000     0          
O        O      0.430875000000     0.920000000000     0.077300000000     0          
O        O      0.437500000000     0.980750000000     0.125000000000     0          
O        O      0.447450000000     0.506300000000     0.063950000000     0          
O        O      0.428125000000     0.920100000000     0.470700000000     0          
T        Si     0.422550000000     0.972400000000     0.087800000000     0          
T        Si     0.452900000000     0.967750000000     0.470700000000     0          
O        O      0.319125000000     0.830000000000     0.077300000000     0          
O        O      0.312500000000     0.769250000000     0.125000000000     0          
O        O      0.302550000000     0.743700000000     0.063950000000     0          
O        O      0.321875000000     0.829900000000     0.470700000000     0          
T        Si     0.327450000000     0.777600000000     0.087800000000     0          
T        Si     0.297100000000     0.782250000000     0.470700000000     0          
O        O      0.250000000000     0.625000000000     0.255950000000     0          
O        O      0.375000000000     0.625000000000     0.325100000000     0          
O        O      0.250000000000     0.733700000000     0.334900000000     0          
O        O      0.375000000000     0.706650000000     0.226950000000     0          
O        O      0.423550000000     0.625000000000     0.273800000000     0          
O        O      0.444125000000     0.670000000000     0.327300000000     0          
O        O      0.427550000000     0.756300000000     0.313950000000     0          
O        O      0.438575000000     0.750000000000     0.250000000000     0          
O        O      0.446875000000     0.670100000000     0.220700000000     0          
T        Si     0.452450000000     0.722400000000     0.337800000000     0          
T        Si     0.422100000000     0.717750000000     0.220700000000     0          
T        Si     0.453975000000     0.625000000000     0.242850000000     0          
T        Si     0.421575000000     0.625000000000     0.313400000000     0          
O        O      0.250000000000     0.516300000000     0.334900000000     0          
O        O      0.375000000000     0.543350000000     0.226950000000     0          
O        O      0.326450000000     0.625000000000     0.273800000000     0          
O        O      0.305875000000     0.580000000000     0.327300000000     0          
O        O      0.322450000000     0.993700000000     0.313950000000     0          
O        O      0.311425000000     0.500000000000     0.250000000000     0          
O        O      0.303125000000     0.579900000000     0.220700000000     0          
T        Si     0.297550000000     0.527600000000     0.337800000000     0          
T        Si     0.327900000000     0.532250000000     0.220700000000     0          
T        Si     0.296025000000     0.625000000000     0.242850000000     0          
T        Si     0.328425000000     0.625000000000     0.313400000000     0          
O        O      0.250000000000     0.875000000000     0.244050000000     0          
O        O      0.375000000000     0.875000000000     0.174900000000     0          
O        O      0.250000000000     0.766300000000     0.165100000000     0          
O        O      0.375000000000     0.793350000000     0.273050000000     0          
O        O      0.423550000000     0.875000000000     0.226200000000     0          
O        O      0.444125000000     0.830000000000     0.172700000000     0          
O        O      0.427550000000     0.743700000000     0.186050000000     0          
O        O      0.446875000000     0.829900000000     0.279300000000     0          
T        Si     0.452450000000     0.777600000000     0.162200000000     0          
T        Si     0.422100000000     0.782250000000     0.279300000000     0          
T        Si     0.453975000000     0.875000000000     0.257150000000     0          
T        Si     0.421575000000     0.875000000000     0.186600000000     0          
O        O      0.250000000000     0.983700000000     0.165100000000     0          
O        O      0.375000000000     0.956650000000     0.273050000000     0          
O        O      0.326450000000     0.875000000000     0.226200000000     0          
O        O      0.305875000000     0.920000000000     0.172700000000     0          
O        O      0.322450000000     0.506300000000     0.186050000000     0          
O        O      0.303125000000     0.920100000000     0.279300000000     0          
T        Si     0.297550000000     0.972400000000     0.162200000000     0          
T        Si     0.327900000000     0.967750000000     0.279300000000     0          
T        Si     0.296025000000     0.875000000000     0.257150000000     0          
T        Si     0.328425000000     0.875000000000     0.186600000000     0          
O        O      0.305875000000     0.830000000000     0.172700000000     0          
O        O      0.322450000000     0.743700000000     0.186050000000     0          
O        O      0.311425000000     0.750000000000     0.250000000000     0          
O        O      0.303125000000     0.829900000000     0.279300000000     0          
T        Si     0.297550000000     0.777600000000     0.162200000000     0          
T        Si     0.327900000000     0.782250000000     0.279300000000     0          
O        O      0.444125000000     0.920000000000     0.172700000000     0          
O        O      0.427550000000     0.506300000000     0.186050000000     0          
O        O      0.438575000000     0.500000000000     0.250000000000     0          
O        O      0.446875000000     0.920100000000     0.279300000000     0          
T        Si     0.452450000000     0.972400000000     0.162200000000     0          
T        Si     0.422100000000     0.967750000000     0.279300000000     0          
O        O      0.305875000000     0.670000000000     0.327300000000     0          
O        O      0.322450000000     0.756300000000     0.313950000000     0          
O        O      0.303125000000     0.670100000000     0.220700000000     0          
T        Si     0.297550000000     0.722400000000     0.337800000000     0          
T        Si     0.327900000000     0.717750000000     0.220700000000     0          
O        O      0.444125000000     0.580000000000     0.327300000000     0          
O        O      0.427550000000     0.993700000000     0.313950000000     0          
O        O      0.446875000000     0.579900000000     0.220700000000     0          
T        Si     0.452450000000     0.527600000000     0.337800000000     0          
T        Si     0.422100000000     0.532250000000     0.220700000000     0          
O        O      0.375000000000     0.875000000000     0.505950000000     0          
O        O      0.250000000000     0.875000000000     0.575100000000     0          
O        O      0.375000000000     0.983700000000     0.584900000000     0          
O        O      0.250000000000     0.956650000000     0.976950000000     0          
O        O      0.298550000000     0.875000000000     0.523800000000     0          
O        O      0.319125000000     0.920000000000     0.577300000000     0          
O        O      0.312500000000     0.980750000000     0.625000000000     0          
O        O      0.302550000000     0.506300000000     0.563950000000     0          
O        O      0.313575000000     0.500000000000     0.500000000000     0          
O        O      0.321875000000     0.920100000000     0.970700000000     0          
T        Si     0.327450000000     0.972400000000     0.587800000000     0          
T        Si     0.297100000000     0.967750000000     0.970700000000     0          
T        Si     0.328975000000     0.875000000000     0.992850000000     0          
T        Si     0.296575000000     0.875000000000     0.563400000000     0          
O        O      0.375000000000     0.766300000000     0.584900000000     0          
O        O      0.250000000000     0.793350000000     0.976950000000     0          
O        O      0.451450000000     0.875000000000     0.523800000000     0          
O        O      0.430875000000     0.830000000000     0.577300000000     0          
O        O      0.437500000000     0.769250000000     0.625000000000     0          
O        O      0.447450000000     0.743700000000     0.563950000000     0          
O        O      0.436425000000     0.750000000000     0.500000000000     0          
O        O      0.428125000000     0.829900000000     0.970700000000     0          
T        Si     0.422550000000     0.777600000000     0.587800000000     0          
T        Si     0.452900000000     0.782250000000     0.970700000000     0          
T        Si     0.421025000000     0.875000000000     0.992850000000     0          
T        Si     0.453425000000     0.875000000000     0.563400000000     0          
O        O      0.375000000000     0.625000000000     0.994050000000     0          
O        O      0.250000000000     0.625000000000     0.924900000000     0          
O        O      0.375000000000     0.516300000000     0.915100000000     0          
O        O      0.250000000000     0.543350000000     0.523050000000     0          
O        O      0.298550000000     0.625000000000     0.976200000000     0          
O        O      0.319125000000     0.580000000000     0.922700000000     0          
O        O      0.312500000000     0.519250000000     0.875000000000     0          
O        O      0.302550000000     0.993700000000     0.936050000000     0          
O        O      0.321875000000     0.579900000000     0.529300000000     0          
T        Si     0.327450000000     0.527600000000     0.912200000000     0          
T        Si     0.297100000000     0.532250000000     0.529300000000     0          
T        Si     0.328975000000     0.625000000000     0.507150000000     0          
T        Si     0.296575000000     0.625000000000     0.936600000000     0          
O        O      0.375000000000     0.733700000000     0.915100000000     0          
O        O      0.250000000000     0.706650000000     0.523050000000     0          
O        O      0.451450000000     0.625000000000     0.976200000000     0          
O        O      0.430875000000     0.670000000000     0.922700000000     0          
O        O      0.437500000000     0.730750000000     0.875000000000     0          
O        O      0.447450000000     0.756300000000     0.936050000000     0          
O        O      0.428125000000     0.670100000000     0.529300000000     0          
T        Si     0.422550000000     0.722400000000     0.912200000000     0          
T        Si     0.452900000000     0.717750000000     0.529300000000     0          
T        Si     0.421025000000     0.625000000000     0.507150000000     0          
T        Si     0.453425000000     0.625000000000     0.936600000000     0          
O        O      0.430875000000     0.580000000000     0.922700000000     0          
O        O      0.437500000000     0.519250000000     0.875000000000     0          
O        O      0.447450000000     0.993700000000     0.936050000000     0          
O        O      0.436425000000     0.500000000000     0.500000000000     0          
O        O      0.428125000000     0.579900000000     0.529300000000     0          
T        Si     0.422550000000     0.527600000000     0.912200000000     0          
T        Si     0.452900000000     0.532250000000     0.529300000000     0          
O        O      0.319125000000     0.670000000000     0.922700000000     0          
O        O      0.312500000000     0.730750000000     0.875000000000     0          
O        O      0.302550000000     0.756300000000     0.936050000000     0          
O        O      0.313575000000     0.750000000000     0.500000000000     0          
O        O      0.321875000000     0.670100000000     0.529300000000     0          
T        Si     0.327450000000     0.722400000000     0.912200000000     0          
T        Si     0.297100000000     0.717750000000     0.529300000000     0          
O        O      0.430875000000     0.920000000000     0.577300000000     0          
O        O      0.437500000000     0.980750000000     0.625000000000     0          
O        O      0.447450000000     0.506300000000     0.563950000000     0          
O        O      0.428125000000     0.920100000000     0.970700000000     0          
T        Si     0.422550000000     0.972400000000     0.587800000000     0          
T        Si     0.452900000000     0.967750000000     0.970700000000     0          
O        O      0.319125000000     0.830000000000     0.577300000000     0          
O        O      0.312500000000     0.769250000000     0.625000000000     0          
O        O      0.302550000000     0.743700000000     0.563950000000     0          
O        O      0.321875000000     0.829900000000     0.970700000000     0          
T        Si     0.327450000000     0.777600000000     0.587800000000     0          
T        Si     0.297100000000     0.782250000000     0.970700000000     0          
O        O      0.250000000000     0.625000000000     0.755950000000     0          
O        O      0.375000000000     0.625000000000     0.825100000000     0          
O        O      0.250000000000     0.733700000000     0.834900000000     0          
O        O      0.375000000000     0.706650000000     0.726950000000     0          
O        O      0.423550000000     0.625000000000     0.773800000000     0          
O        O      0.444125000000     0.670000000000     0.827300000000     0          
O        O      0.427550000000     0.756300000000     0.813950000000     0          
O        O      0.438575000000     0.750000000000     0.750000000000     0          
O        O      0.446875000000     0.670100000000     0.720700000000     0          
T        Si     0.452450000000     0.722400000000     0.837800000000     0          
T        Si     0.422100000000     0.717750000000     0.720700000000     0          
T        Si     0.453975000000     0.625000000000     0.742850000000     0          
T        Si     0.421575000000     0.625000000000     0.813400000000     0          
O        O      0.250000000000     0.516300000000     0.834900000000     0          
O        O      0.375000000000     0.543350000000     0.726950000000     0          
O        O      0.326450000000     0.625000000000     0.773800000000     0          
O        O      0.305875000000     0.580000000000     0.827300000000     0          
O        O      0.322450000000     0.993700000000     0.813950000000     0          
O        O      0.311425000000     0.500000000000     0.750000000000     0          
O        O      0.303125000000     0.579900000000     0.720700000000     0          
T        Si     0.297550000000     0.527600000000     0.837800000000     0          
T        Si     0.327900000000     0.532250000000     0.720700000000     0          
T        Si     0.296025000000     0.625000000000     0.742850000000     0          
T        Si     0.328425000000     0.625000000000     0.813400000000     0          
O        O      0.250000000000     0.875000000000     0.744050000000     0          
O        O      0.375000000000     0.875000000000     0.674900000000     0          
O        O      0.250000000000     0.766300000000     0.665100000000     0          
O        O      0.375000000000     0.793350000000     0.773050000000     0          
O        O      0.423550000000     0.875000000000     0.726200000000     0          
O        O      0.444125000000     0.830000000000     0.672700000000     0          
O        O      0.427550000000     0.743700000000     0.686050000000     0          
O        O      0.446875000000     0.829900000000     0.779300000000     0          
T        Si     0.452450000000     0.777600000000     0.662200000000     0          
T        Si     0.422100000000     0.782250000000     0.779300000000     0          
T        Si     0.453975000000     0.875000000000     0.757150000000     0          
T        Si     0.421575000000     0.875000000000     0.686600000000     0          
O        O      0.250000000000     0.983700000000     0.665100000000     0          
O        O      0.375000000000     0.956650000000     0.773050000000     0          
O        O      0.326450000000     0.875000000000     0.726200000000     0          
O        O      0.305875000000     0.920000000000     0.672700000000     0          
O        O      0.322450000000     0.506300000000     0.686050000000     0          
O        O      0.303125000000     0.920100000000     0.779300000000     0          
T        Si     0.297550000000     0.972400000000     0.662200000000     0          
T        Si     0.327900000000     0.967750000000     0.779300000000     0          
T        Si     0.296025000000     0.875000000000     0.757150000000     0          
T        Si     0.328425000000     0.875000000000     0.686600000000     0          
O        O      0.305875000000     0.830000000000     0.672700000000     0          
O        O      0.322450000000     0.743700000000     0.686050000000     0          
O        O      0.311425000000     0.750000000000     0.750000000000     0          
O        O      0.303125000000     0.829900000000     0.779300000000     0          
T        Si     0.297550000000     0.777600000000     0.662200000000     0          
T        Si     0.327900000000     0.782250000000     0.779300000000     0          
O        O      0.444125000000     0.920000000000     0.672700000000     0          
O        O      0.427550000000     0.506300000000     0.686050000000     0          
O        O      0.438575000000     0.500000000000     0.750000000000     0          
O        O      0.446875000000     0.920100000000     0.779300000000     0          
T        Si     0.452450000000     0.972400000000     0.662200000000     0          
T        Si     0.422100000000     0.967750000000     0.779300000000     0          
O        O      0.305875000000     0.670000000000     0.827300000000     0          
O        O      0.322450000000     0.756300000000     0.813950000000     0          
O        O      0.303125000000     0.670100000000     0.720700000000     0          
T        Si     0.297550000000     0.722400000000     0.837800000000     0          
T        Si     0.327900000000     0.717750000000     0.720700000000     0          
O        O      0.444125000000     0.580000000000     0.827300000000     0          
O        O      0.427550000000     0.993700000000     0.813950000000     0          
O        O      0.446875000000     0.579900000000     0.720700000000     0          
T        Si     0.452450000000     0.527600000000     0.837800000000     0          
T        Si     0.422100000000     0.532250000000     0.720700000000     0          
O        O      0.625000000000     0.375000000000     0.005950000000     0          
O        O      0.500000000000     0.375000000000     0.075100000000     0          
O        O      0.625000000000     0.483700000000     0.084900000000     0          
O        O      0.500000000000     0.456650000000     0.476950000000     0          
O        O      0.548550000000     0.375000000000     0.023800000000     0          
O        O      0.569125000000     0.420000000000     0.077300000000     0          
O        O      0.562500000000     0.480750000000     0.125000000000     0          
O        O      0.552550000000     0.006300000000     0.063950000000     0          
O        O      0.563575000000     0.000000000000     0.000000000000     0          
O        O      0.571875000000     0.420100000000     0.470700000000     0          
T        Si     0.577450000000     0.472400000000     0.087800000000     0          
T        Si     0.547100000000     0.467750000000     0.470700000000     0          
T        Si     0.578975000000     0.375000000000     0.492850000000     0          
T        Si     0.546575000000     0.375000000000     0.063400000000     0          
O        O      0.625000000000     0.266300000000     0.084900000000     0          
O        O      0.500000000000     0.293350000000     0.476950000000     0          
O        O      0.701450000000     0.375000000000     0.023800000000     0          
O        O      0.680875000000     0.330000000000     0.077300000000     0          
O        O      0.687500000000     0.269250000000     0.125000000000     0          
O        O      0.697450000000     0.243700000000     0.063950000000     0          
O        O      0.686425000000     0.250000000000     0.000000000000     0          
O        O      0.678125000000     0.329900000000     0.470700000000     0          
T        Si     0.672550000000     0.277600000000     0.087800000000     0          
T        Si     0.702900000000     0.282250000000     0.470700000000     0          
T        Si     0.671025000000     0.375000000000     0.492850000000     0          
T        Si     0.703425000000     0.375000000000     0.063400000000     0          
O        O      0.625000000000     0.125000000000     0.494050000000     0          
O        O      0.500000000000     0.125000000000     0.424900000000     0          
O        O      0.625000000000     0.016300000000     0.415100000000     0          
O        O      0.500000000000     0.043350000000     0.023050000000     0          
O        O      0.548550000000     0.125000000000     0.476200000000     0          
O        O      0.569125000000     0.080000000000     0.422700000000     0          
O        O      0.562500000000     0.019250000000     0.375000000000     0          
O        O      0.552550000000     0.493700000000     0.436050000000     0          
O        O      0.571875000000     0.079900000000     0.029300000000     0          
T        Si     0.577450000000     0.027600000000     0.412200000000     0          
T        Si     0.547100000000     0.032250000000     0.029300000000     0          
T        Si     0.578975000000     0.125000000000     0.007150000000     0          
T        Si     0.546575000000     0.125000000000     0.436600000000     0          
O        O      0.625000000000     0.233700000000     0.415100000000     0          
O        O      0.500000000000     0.206650000000     0.023050000000     0          
O        O      0.701450000000     0.125000000000     0.476200000000     0          
O        O      0.680875000000     0.170000000000     0.422700000000     0          
O        O      0.687500000000     0.230750000000     0.375000000000     0          
O        O      0.697450000000     0.256300000000     0.436050000000     0          
O        O      0.678125000000     0.170100000000     0.029300000000     0          
T        Si     0.672550000000     0.222400000000     0.412200000000     0          
T        Si     0.702900000000     0.217750000000     0.029300000000     0          
T        Si     0.671025000000     0.125000000000     0.007150000000     0          
T        Si     0.703425000000     0.125000000000     0.436600000000     0          
O        O      0.680875000000     0.080000000000     0.422700000000     0          
O        O      0.687500000000     0.019250000000     0.375000000000     0          
O        O      0.697450000000     0.493700000000     0.436050000000     0          
O        O      0.686425000000     0.000000000000     0.000000000000     0          
O        O      0.678125000000     0.079900000000     0.029300000000     0          
T        Si     0.672550000000     0.027600000000     0.412200000000     0          
T        Si     0.702900000000     0.032250000000     0.029300000000     0          
O        O      0.569125000000     0.170000000000     0.422700000000     0          
O        O      0.562500000000     0.230750000000     0.375000000000     0          
O        O      0.552550000000     0.256300000000     0.436050000000     0          
O        O      0.563575000000     0.250000000000     0.000000000000     0          
O        O      0.571875000000     0.170100000000     0.029300000000     0          
T        Si     0.577450000000     0.222400000000     0.412200000000     0          
T        Si     0.547100000000     0.217750000000     0.029300000000     0          
O        O      0.680875000000     0.420000000000     0.077300000000     0          
O        O      0.687500000000     0.480750000000     0.125000000000     0          
O        O      0.697450000000     0.006300000000     0.063950000000     0          
O        O      0.678125000000     0.420100000000     0.470700000000     0          
T        Si     0.672550000000     0.472400000000     0.087800000000     0          
T        Si     0.702900000000     0.467750000000     0.470700000000     0          
O        O      0.569125000000     0.330000000000     0.077300000000     0          
O        O      0.562500000000     0.269250000000     0.125000000000     0          
O        O      0.552550000000     0.243700000000     0.063950000000     0          
O        O      0.571875000000     0.329900000000     0.470700000000     0          
T        Si     0.577450000000     0.277600000000     0.087800000000     0          
T        Si     0.547100000000     0.282250000000     0.470700000000     0          
O        O      0.500000000000     0.125000000000     0.255950000000     0          
O        O      0.625000000000     0.125000000000     0.325100000000     0          
O        O      0.500000000000     0.233700000000     0.334900000000     0          
O        O      0.625000000000     0.206650000000     0.226950000000     0          
O        O      0.673550000000     0.125000000000     0.273800000000     0          
O        O      0.694125000000     0.170000000000     0.327300000000     0          
O        O      0.677550000000     0.256300000000     0.313950000000     0          
O        O      0.688575000000     0.250000000000     0.250000000000     0          
O        O      0.696875000000     0.170100000000     0.220700000000     0          
T        Si     0.702450000000     0.222400000000     0.337800000000     0          
T        Si     0.672100000000     0.217750000000     0.220700000000     0          
T        Si     0.703975000000     0.125000000000     0.242850000000     0          
T        Si     0.671575000000     0.125000000000     0.313400000000     0          
O        O      0.500000000000     0.016300000000     0.334900000000     0          
O        O      0.625000000000     0.043350000000     0.226950000000     0          
O        O      0.576450000000     0.125000000000     0.273800000000     0          
O        O      0.555875000000     0.080000000000     0.327300000000     0          
O        O      0.572450000000     0.493700000000     0.313950000000     0          
O        O      0.561425000000     0.000000000000     0.250000000000     0          
O        O      0.553125000000     0.079900000000     0.220700000000     0          
T        Si     0.547550000000     0.027600000000     0.337800000000     0          
T        Si     0.577900000000     0.032250000000     0.220700000000     0          
T        Si     0.546025000000     0.125000000000     0.242850000000     0          
T        Si     0.578425000000     0.125000000000     0.313400000000     0          
O        O      0.500000000000     0.375000000000     0.244050000000     0          
O        O      0.625000000000     0.375000000000     0.174900000000     0          
O        O      0.500000000000     0.266300000000     0.165100000000     0          
O        O      0.625000000000     0.293350000000     0.273050000000     0          
O        O      0.673550000000     0.375000000000     0.226200000000     0          
O        O      0.694125000000     0.330000000000     0.172700000000     0          
O        O      0.677550000000     0.243700000000     0.186050000000     0          
O        O      0.696875000000     0.329900000000     0.279300000000     0          
T        Si     0.702450000000     0.277600000000     0.162200000000     0          
T        Si     0.672100000000     0.282250000000     0.279300000000     0          
T        Si     0.703975000000     0.375000000000     0.257150000000     0          
T        Si     0.671575000000     0.375000000000     0.186600000000     0          
O        O      0.500000000000     0.483700000000     0.165100000000     0          
O        O      0.625000000000     0.456650000000     0.273050000000     0          
O        O      0.576450000000     0.375000000000     0.226200000000     0          
O        O      0.555875000000     0.420000000000     0.172700000000     0          
O        O      0.572450000000     0.006300000000     0.186050000000     0          
O        O      0.553125000000     0.420100000000     0.279300000000     0          
T        Si     0.547550000000     0.472400000000     0.162200000000     0          
T        Si     0.577900000000     0.467750000000     0.279300000000     0          
T        Si     0.546025000000     0.375000000000     0.257150000000     0          
T        Si     0.578425000000     0.375000000000     0.186600000000     0          
O        O      0.555875000000     0.330000000000     0.172700000000     0          
O        O      0.572450000000     0.243700000000     0.186050000000     0          
O        O      0.561425000000     0.250000000000     0.250000000000     0          
O        O      0.553125000000     0.329900000000     0.279300000000     0          
T        Si     0.547550000000     0.277600000000     0.162200000000     0          
T        Si     0.577900000000     0.282250000000     0.279300000000     0          
O        O      0.694125000000     0.420000000000     0.172700000000     0          
O        O      0.677550000000     0.006300000000     0.186050000000     0          
O        O      0.688575000000     0.000000000000     0.250000000000     0          
O        O      0.696875000000     0.420100000000     0.279300000000     0          
T        Si     0.702450000000     0.472400000000     0.162200000000     0          
T        Si     0.672100000000     0.467750000000     0.279300000000     0          
O        O      0.555875000000     0.170000000000     0.327300000000     0          
O        O      0.572450000000     0.256300000000     0.313950000000     0          
O        O      0.553125000000     0.170100000000     0.220700000000     0          
T        Si     0.547550000000     0.222400000000     0.337800000000     0          
T        Si     0.577900000000     0.217750000000     0.220700000000     0          
O        O      0.694125000000     0.080000000000     0.327300000000     0          
O        O      0.677550000000     0.493700000000     0.313950000000     0          
O        O      0.696875000000     0.079900000000     0.220700000000     0          
T        Si     0.702450000000     0.027600000000     0.337800000000     0          
T        Si     0.672100000000     0.032250000000     0.220700000000     0          
O        O      0.625000000000     0.375000000000     0.505950000000     0          
O        O      0.500000000000     0.375000000000     0.575100000000     0          
O        O      0.625000000000     0.483700000000     0.584900000000     0          
O        O      0.500000000000     0.456650000000     0.976950000000     0          
O        O      0.548550000000     0.375000000000     0.523800000000     0          
O        O      0.569125000000     0.420000000000     0.577300000000     0          
O        O      0.562500000000     0.480750000000     0.625000000000     0          
O        O      0.552550000000     0.006300000000     0.563950000000     0          
O        O      0.563575000000     0.000000000000     0.500000000000     0          
O        O      0.571875000000     0.420100000000     0.970700000000     0          
T        Si     0.577450000000     0.472400000000     0.587800000000     0          
T        Si     0.547100000000     0.467750000000     0.970700000000     0          
T        Si     0.578975000000     0.375000000000     0.992850000000     0          
T        Si     0.546575000000     0.375000000000     0.563400000000     0          
O        O      0.625000000000     0.266300000000     0.584900000000     0          
O        O      0.500000000000     0.293350000000     0.976950000000     0          
O        O      0.701450000000     0.375000000000     0.523800000000     0          
O        O      0.680875000000     0.330000000000     0.577300000000     0          
O        O      0.687500000000     0.269250000000     0.625000000000     0          
O        O      0.697450000000     0.243700000000     0.563950000000     0          
O        O      0.686425000000     0.250000000000     0.500000000000     0          
O        O      0.678125000000     0.329900000000     0.970700000000     0          
T        Si     0.672550000000     0.277600000000     0.587800000000     0          
T        Si     0.702900000000     0.282250000000     0.970700000000     0          
T        Si     0.671025000000     0.375000000000     0.992850000000     0          
T        Si     0.703425000000     0.375000000000     0.563400000000     0          
O        O      0.625000000000     0.125000000000     0.994050000000     0          
O        O      0.500000000000     0.125000000000     0.924900000000     0          
O        O      0.625000000000     0.016300000000     0.915100000000     0          
O        O      0.500000000000     0.043350000000     0.523050000000     0          
O        O      0.548550000000     0.125000000000     0.976200000000     0          
O        O      0.569125000000     0.080000000000     0.922700000000     0          
O        O      0.562500000000     0.019250000000     0.875000000000     0          
O        O      0.552550000000     0.493700000000     0.936050000000     0          
O        O      0.571875000000     0.079900000000     0.529300000000     0          
T        Si     0.577450000000     0.027600000000     0.912200000000     0          
T        Si     0.547100000000     0.032250000000     0.529300000000     0          
T        Si     0.578975000000     0.125000000000     0.507150000000     0          
T        Si     0.546575000000     0.125000000000     0.936600000000     0          
O        O      0.625000000000     0.233700000000     0.915100000000     0          
O        O      0.500000000000     0.206650000000     0.523050000000     0          
O        O      0.701450000000     0.125000000000     0.976200000000     0          
O        O      0.680875000000     0.170000000000     0.922700000000     0          
O        O      0.687500000000     0.230750000000     0.875000000000     0          
O        O      0.697450000000     0.256300000000     0.936050000000     0          
O        O      0.678125000000     0.170100000000     0.529300000000     0          
T        Si     0.672550000000     0.222400000000     0.912200000000     0          
T        Si     0.702900000000     0.217750000000     0.529300000000     0          
T        Si     0.671025000000     0.125000000000     0.507150000000     0          
T        Si     0.703425000000     0.125000000000     0.936600000000     0          
O        O      0.680875000000     0.080000000000     0.922700000000     0          
O        O      0.687500000000     0.019250000000     0.875000000000     0          
O        O      0.697450000000     0.493700000000     0.936050000000     0          
O        O      0.686425000000     0.000000000000     0.500000000000     0          
O        O      0.678125000000     0.079900000000     0.529300000000     0          
T        Si     0.672550000000     0.027600000000     0.912200000000     0          
T        Si     0.702900000000     0.032250000000     0.529300000000     0          
O        O      0.569125000000     0.170000000000     0.922700000000     0          
O        O      0.562500000000     0.230750000000     0.875000000000     0          
O        O      0.552550000000     0.256300000000     0.936050000000     0          
O        O      0.563575000000     0.250000000000     0.500000000000     0          
O        O      0.571875000000     0.170100000000     0.529300000000     0          
T        Si     0.577450000000     0.222400000000     0.912200000000     0          
T        Si     0.547100000000     0.217750000000     0.529300000000     0          
O        O      0.680875000000     0.420000000000     0.577300000000     0          
O        O      0.687500000000     0.480750000000     0.625000000000     0          
O        O      0.697450000000     0.006300000000     0.563950000000     0          
O        O      0.678125000000     0.420100000000     0.970700000000     0          
T        Si     0.672550000000     0.472400000000     0.587800000000     0          
T        Si     0.702900000000     0.467750000000     0.970700000000     0          
O        O      0.569125000000     0.330000000000     0.577300000000     0          
O        O      0.562500000000     0.269250000000     0.625000000000     0          
O        O      0.552550000000     0.243700000000     0.563950000000     0          
O        O      0.571875000000     0.329900000000     0.970700000000     0          
T        Si     0.577450000000     0.277600000000     0.587800000000     0          
T        Si     0.547100000000     0.282250000000     0.970700000000     0          
O        O      0.500000000000     0.125000000000     0.755950000000     0          
O        O      0.625000000000     0.125000000000     0.825100000000     0          
O        O      0.500000000000     0.233700000000     0.834900000000     0          
O        O      0.625000000000     0.206650000000     0.726950000000     0          
O        O      0.673550000000     0.125000000000     0.773800000000     0          
O        O      0.694125000000     0.170000000000     0.827300000000     0          
O        O      0.677550000000     0.256300000000     0.813950000000     0          
O        O      0.688575000000     0.250000000000     0.750000000000     0          
O        O      0.696875000000     0.170100000000     0.720700000000     0          
T        Si     0.702450000000     0.222400000000     0.837800000000     0          
T        Si     0.672100000000     0.217750000000     0.720700000000     0          
T        Si     0.703975000000     0.125000000000     0.742850000000     0          
T        Si     0.671575000000     0.125000000000     0.813400000000     0          
O        O      0.500000000000     0.016300000000     0.834900000000     0          
O        O      0.625000000000     0.043350000000     0.726950000000     0          
O        O      0.576450000000     0.125000000000     0.773800000000     0          
O        O      0.555875000000     0.080000000000     0.827300000000     0          
O        O      0.572450000000     0.493700000000     0.813950000000     0          
O        O      0.561425000000     0.000000000000     0.750000000000     0          
O        O      0.553125000000     0.079900000000     0.720700000000     0          
T        Si     0.547550000000     0.027600000000     0.837800000000     0          
T        Si     0.577900000000     0.032250000000     0.720700000000     0          
T        Si     0.546025000000     0.125000000000     0.742850000000     0          
T        Si     0.578425000000     0.125000000000     0.813400000000     0          
O        O      0.500000000000     0.375000000000     0.744050000000     0          
O        O      0.625000000000     0.375000000000     0.674900000000     0          
O        O      0.500000000000     0.266300000000     0.665100000000     0          
O        O      0.625000000000     0.293350000000     0.773050000000     0          
O        O      0.673550000000     0.375000000000     0.726200000000     0          
O        O      0.694125000000     0.330000000000     0.672700000000     0          
O        O      0.677550000000     0.243700000000     0.686050000000     0          
O        O      0.696875000000     0.329900000000     0.779300000000     0          
T        Si     0.702450000000     0.277600000000     0.662200000000     0          
T        Si     0.672100000000     0.282250000000     0.779300000000     0          
T        Si     0.703975000000     0.375000000000     0.757150000000     0          
T        Si     0.671575000000     0.375000000000     0.686600000000     0          
O        O      0.500000000000     0.483700000000     0.665100000000     0          
O        O      0.625000000000     0.456650000000     0.773050000000     0          
O        O      0.576450000000     0.375000000000     0.726200000000     0          
O        O      0.555875000000     0.420000000000     0.672700000000     0          
O        O      0.572450000000     0.006300000000     0.686050000000     0          
O        O      0.553125000000     0.420100000000     0.779300000000     0          
T        Si     0.547550000000     0.472400000000     0.662200000000     0          
T        Si     0.577900000000     0.467750000000     0.779300000000     0          
T        Si     0.546025000000     0.375000000000     0.757150000000     0          
T        Si     0.578425000000     0.375000000000     0.686600000000     0          
O        O      0.555875000000     0.330000000000     0.672700000000     0          
O        O      0.572450000000     0.243700000000     0.686050000000     0          
O        O      0.561425000000     0.250000000000     0.750000000000     0          
O        O      0.553125000000     0.329900000000     0.779300000000     0          
T        Si     0.547550000000     0.277600000000     0.662200000000     0          
T        Si     0.577900000000     0.282250000000     0.779300000000     0          
O        O      0.694125000000     0.420000000000     0.672700000000     0          
O        O      0.677550000000     0.006300000000     0.686050000000     0          
O        O      0.688575000000     0.000000000000     0.750000000000     0          
O        O      0.696875000000     0.420100000000     0.779300000000     0          
T        Si     0.702450000000     0.472400000000     0.662200000000     0          
T        Si     0.672100000000     0.467750000000     0.779300000000     0          
O        O      0.555875000000     0.170000000000     0.827300000000     0          
O        O      0.572450000000     0.256300000000     0.813950000000     0          
O        O      0.553125000000     0.170100000000     0.720700000000     0          
T        Si     0.547550000000     0.222400000000     0.837800000000     0          
T        Si     0.577900000000     0.217750000000     0.720700000000     0          
O        O      0.694125000000     0.080000000000     0.827300000000     0          
O        O      0.677550000000     0.493700000000     0.813950000000     0          
O        O      0.696875000000     0.079900000000     0.720700000000     0          
T        Si     0.702450000000     0.027600000000     0.837800000000     0          
T        Si     0.672100000000     0.032250000000     0.720700000000     0          
O        O      0.625000000000     0.875000000000     0.005950000000     0          
O        O      0.500000000000     0.875000000000     0.075100000000     0          
O        O      0.625000000000     0.983700000000     0.084900000000     0          
O        O      0.500000000000     0.956650000000     0.476950000000     0          
O        O      0.548550000000     0.875000000000     0.023800000000     0          
O        O      0.569125000000     0.920000000000     0.077300000000     0          
O        O      0.562500000000     0.980750000000     0.125000000000     0          
O        O      0.552550000000     0.506300000000     0.063950000000     0          
O        O      0.563575000000     0.500000000000     0.000000000000     0          
O        O      0.571875000000     0.920100000000     0.470700000000     0          
T        Si     0.577450000000     0.972400000000     0.087800000000     0          
T        Si     0.547100000000     0.967750000000     0.470700000000     0          
T        Si     0.578975000000     0.875000000000     0.492850000000     0          
T        Si     0.546575000000     0.875000000000     0.063400000000     0          
O        O      0.625000000000     0.766300000000     0.084900000000     0          
O        O      0.500000000000     0.793350000000     0.476950000000     0          
O        O      0.701450000000     0.875000000000     0.023800000000     0          
O        O      0.680875000000     0.830000000000     0.077300000000     0          
O        O      0.687500000000     0.769250000000     0.125000000000     0          
O        O      0.697450000000     0.743700000000     0.063950000000     0          
O        O      0.686425000000     0.750000000000     0.000000000000     0          
O        O      0.678125000000     0.829900000000     0.470700000000     0          
T        Si     0.672550000000     0.777600000000     0.087800000000     0          
T        Si     0.702900000000     0.782250000000     0.470700000000     0          
T        Si     0.671025000000     0.875000000000     0.492850000000     0          
T        Si     0.703425000000     0.875000000000     0.063400000000     0          
O        O      0.625000000000     0.625000000000     0.494050000000     0          
O        O      0.500000000000     0.625000000000     0.424900000000     0          
O        O      0.625000000000     0.516300000000     0.415100000000     0          
O        O      0.500000000000     0.543350000000     0.023050000000     0          
O        O      0.548550000000     0.625000000000     0.476200000000     0          
O        O      0.569125000000     0.580000000000     0.422700000000     0          
O        O      0.562500000000     0.519250000000     0.375000000000     0          
O        O      0.552550000000     0.993700000000     0.436050000000     0          
O        O      0.571875000000     0.579900000000     0.029300000000     0          
T        Si     0.577450000000     0.527600000000     0.412200000000     0          
T        Si     0.547100000000     0.532250000000     0.029300000000     0          
T        Si     0.578975000000     0.625000000000     0.007150000000     0          
T        Si     0.546575000000     0.625000000000     0.436600000000     0          
O        O      0.625000000000     0.733700000000     0.415100000000     0          
O        O      0.500000000000     0.706650000000     0.023050000000     0          
O        O      0.701450000000     0.625000000000     0.476200000000     0          
O        O      0.680875000000     0.670000000000     0.422700000000     0          
O        O      0.687500000000     0.730750000000     0.375000000000     0          
O        O      0.697450000000     0.756300000000     0.436050000000     0          
O        O      0.678125000000     0.670100000000     0.029300000000     0          
T        Si     0.672550000000     0.722400000000     0.412200000000     0          
T        Si     0.702900000000     0.717750000000     0.029300000000     0          
T        Si     0.671025000000     0.625000000000     0.007150000000     0          
T        Si     0.703425000000     0.625000000000     0.436600000000     0          
O        O      0.680875000000     0.580000000000     0.422700000000     0          
O        O      0.687500000000     0.519250000000     0.375000000000     0          
O        O      0.697450000000     0.993700000000     0.436050000000     0          
O        O      0.686425000000     0.500000000000     0.000000000000     0          
O        O      0.678125000000     0.579900000000     0.029300000000     0          
T        Si     0.672550000000     0.527600000000     0.412200000000     0          
T        Si     0.702900000000     0.532250000000     0.029300000000     0          
O        O      0.569125000000     0.670000000000     0.422700000000     0          
O        O      0.562500000000     0.730750000000     0.375000000000     0          
O        O      0.552550000000     0.756300000000     0.436050000000     0          
O        O      0.563575000000     0.750000000000     0.000000000000     0          
O        O      0.571875000000     0.670100000000     0.029300000000     0          
T        Si     0.577450000000     0.722400000000     0.412200000000     0          
T        Si     0.547100000000     0.717750000000     0.029300000000     0          
O        O      0.680875000000     0.920000000000     0.077300000000     0          
O        O      0.687500000000     0.980750000000     0.125000000000     0          
O        O      0.697450000000     0.506300000000     0.063950000000     0          
O        O      0.678125000000     0.920100000000     0.470700000000     0          
T        Si     0.672550000000     0.972400000000     0.087800000000     0          
T        Si     0.702900000000     0.967750000000     0.470700000000     0          
O        O      0.569125000000     0.830000000000     0.077300000000     0          
O        O      0.562500000000     0.769250000000     0.125000000000     0          
O        O      0.552550000000     0.743700000000     0.063950000000     0          
O        O      0.571875000000     0.829900000000     0.470700000000     0          
T        Si     0.577450000000     0.777600000000     0.087800000000     0          
T        Si     0.547100000000     0.782250000000     0.470700000000     0          
O        O      0.500000000000     0.625000000000     0.255950000000     0          
O        O      0.625000000000     0.625000000000     0.325100000000     0          
O        O      0.500000000000     0.733700000000     0.334900000000     0          
O        O      0.625000000000     0.706650000000     0.226950000000     0          
O        O      0.673550000000     0.625000000000     0.273800000000     0          
O        O      0.694125000000     0.670000000000     0.327300000000     0          
O        O      0.677550000000     0.756300000000     0.313950000000     0          
O        O      0.688575000000     0.750000000000     0.250000000000     0          
O        O      0.696875000000     0.670100000000     0.220700000000     0          
T        Si     0.702450000000     0.722400000000     0.337800000000     0          
T        Si     0.672100000000     0.717750000000     0.220700000000     0          
T        Si     0.703975000000     0.625000000000     0.242850000000     0          
T        Si     0.671575000000     0.625000000000     0.313400000000     0          
O        O      0.500000000000     0.516300000000     0.334900000000     0          
O        O      0.625000000000     0.543350000000     0.226950000000     0          
O        O      0.576450000000     0.625000000000     0.273800000000     0          
O        O      0.555875000000     0.580000000000     0.327300000000     0          
O        O      0.572450000000     0.993700000000     0.313950000000     0          
O        O      0.561425000000     0.500000000000     0.250000000000     0          
O        O      0.553125000000     0.579900000000     0.220700000000     0          
T        Si     0.547550000000     0.527600000000     0.337800000000     0          
T        Si     0.577900000000     0.532250000000     0.220700000000     0          
T        Si     0.546025000000     0.625000000000     0.242850000000     0          
T        Si     0.578425000000     0.625000000000     0.313400000000     0          
O        O      0.500000000000     0.875000000000     0.244050000000     0          
O        O      0.625000000000     0.875000000000     0.174900000000     0          
O        O      0.500000000000     0.766300000000     0.165100000000     0          
O        O      0.625000000000     0.793350000000     0.273050000000     0          
O        O      0.673550000000     0.875000000000     0.226200000000     0          
O        O      0.694125000000     0.830000000000     0.172700000000     0          
O        O      0.677550000000     0.743700000000     0.186050000000     0          
O        O      0.696875000000     0.829900000000     0.279300000000     0          
T        Si     0.702450000000     0.777600000000     0.162200000000     0          
T        Si     0.672100000000     0.782250000000     0.279300000000     0          
T        Si     0.703975000000     0.875000000000     0.257150000000     0          
T        Si     0.671575000000     0.875000000000     0.186600000000     0          
O        O      0.500000000000     0.983700000000     0.165100000000     0          
O        O      0.625000000000     0.956650000000     0.273050000000     0          
O        O      0.576450000000     0.875000000000     0.226200000000     0          
O        O      0.555875000000     0.920000000000     0.172700000000     0          
O        O      0.572450000000     0.506300000000     0.186050000000     0          
O        O      0.553125000000     0.920100000000     0.279300000000     0          
T        Si     0.547550000000     0.972400000000     0.162200000000     0          
T        Si     0.577900000000     0.967750000000     0.279300000000     0          
T        Si     0.546025000000     0.875000000000     0.257150000000     0          
T        Si     0.578425000000     0.875000000000     0.186600000000     0          
O        O      0.555875000000     0.830000000000     0.172700000000     0          
O        O      0.572450000000     0.743700000000     0.186050000000     0          
O        O      0.561425000000     0.750000000000     0.250000000000     0          
O        O      0.553125000000     0.829900000000     0.279300000000     0          
T        Si     0.547550000000     0.777600000000     0.162200000000     0          
T        Si     0.577900000000     0.782250000000     0.279300000000     0          
O        O      0.694125000000     0.920000000000     0.172700000000     0          
O        O      0.677550000000     0.506300000000     0.186050000000     0          
O        O      0.688575000000     0.500000000000     0.250000000000     0          
O        O      0.696875000000     0.920100000000     0.279300000000     0          
T        Si     0.702450000000     0.972400000000     0.162200000000     0          
T        Si     0.672100000000     0.967750000000     0.279300000000     0          
O        O      0.555875000000     0.670000000000     0.327300000000     0          
O        O      0.572450000000     0.756300000000     0.313950000000     0          
O        O      0.553125000000     0.670100000000     0.220700000000     0          
T        Si     0.547550000000     0.722400000000     0.337800000000     0          
T        Si     0.577900000000     0.717750000000     0.220700000000     0          
O        O      0.694125000000     0.580000000000     0.327300000000     0          
O        O      0.677550000000     0.993700000000     0.313950000000     0          
O        O      0.696875000000     0.579900000000     0.220700000000     0          
T        Si     0.702450000000     0.527600000000     0.337800000000     0          
T        Si     0.672100000000     0.532250000000     0.220700000000     0          
O        O      0.625000000000     0.875000000000     0.505950000000     0          
O        O      0.500000000000     0.875000000000     0.575100000000     0          
O        O      0.625000000000     0.983700000000     0.584900000000     0          
O        O      0.500000000000     0.956650000000     0.976950000000     0          
O        O      0.548550000000     0.875000000000     0.523800000000     0          
O        O      0.569125000000     0.920000000000     0.577300000000     0          
O        O      0.562500000000     0.980750000000     0.625000000000     0          
O        O      0.552550000000     0.506300000000     0.563950000000     0          
O        O      0.563575000000     0.500000000000     0.500000000000     0          
O        O      0.571875000000     0.920100000000     0.970700000000     0          
T        Si     0.577450000000     0.972400000000     0.587800000000     0          
T        Si     0.547100000000     0.967750000000     0.970700000000     0          
T        Si     0.578975000000     0.875000000000     0.992850000000     0          
T        Si     0.546575000000     0.875000000000     0.563400000000     0          
O        O      0.625000000000     0.766300000000     0.584900000000     0          
O        O      0.500000000000     0.793350000000     0.976950000000     0          
O        O      0.701450000000     0.875000000000     0.523800000000     0          
O        O      0.680875000000     0.830000000000     0.577300000000     0          
O        O      0.687500000000     0.769250000000     0.625000000000     0          
O        O      0.697450000000     0.743700000000     0.563950000000     0          
O        O      0.686425000000     0.750000000000     0.500000000000     0          
O        O      0.678125000000     0.829900000000     0.970700000000     0          
T        Si     0.672550000000     0.777600000000     0.587800000000     0          
T        Si     0.702900000000     0.782250000000     0.970700000000     0          
T        Si     0.671025000000     0.875000000000     0.992850000000     0          
T        Si     0.703425000000     0.875000000000     0.563400000000     0          
O        O      0.625000000000     0.625000000000     0.994050000000     0          
O        O      0.500000000000     0.625000000000     0.924900000000     0          
O        O      0.625000000000     0.516300000000     0.915100000000     0          
O        O      0.500000000000     0.543350000000     0.523050000000     0          
O        O      0.548550000000     0.625000000000     0.976200000000     0          
O        O      0.569125000000     0.580000000000     0.922700000000     0          
O        O      0.562500000000     0.519250000000     0.875000000000     0          
O        O      0.552550000000     0.993700000000     0.936050000000     0          
O        O      0.571875000000     0.579900000000     0.529300000000     0          
T        Si     0.577450000000     0.527600000000     0.912200000000     0          
T        Si     0.547100000000     0.532250000000     0.529300000000     0          
T        Si     0.578975000000     0.625000000000     0.507150000000     0          
T        Si     0.546575000000     0.625000000000     0.936600000000     0          
O        O      0.625000000000     0.733700000000     0.915100000000     0          
O        O      0.500000000000     0.706650000000     0.523050000000     0          
O        O      0.701450000000     0.625000000000     0.976200000000     0          
O        O      0.680875000000     0.670000000000     0.922700000000     0          
O        O      0.687500000000     0.730750000000     0.875000000000     0          
O        O      0.697450000000     0.756300000000     0.936050000000     0          
O        O      0.678125000000     0.670100000000     0.529300000000     0          
T        Si     0.672550000000     0.722400000000     0.912200000000     0          
T        Si     0.702900000000     0.717750000000     0.529300000000     0          
T        Si     0.671025000000     0.625000000000     0.507150000000     0          
T        Si     0.703425000000     0.625000000000     0.936600000000     0          
O        O      0.680875000000     0.580000000000     0.922700000000     0          
O        O      0.687500000000     0.519250000000     0.875000000000     0          
O        O      0.697450000000     0.993700000000     0.936050000000     0          
O        O      0.686425000000     0.500000000000     0.500000000000     0          
O        O      0.678125000000     0.579900000000     0.529300000000     0          
T        Si     0.672550000000     0.527600000000     0.912200000000     0          
T        Si     0.702900000000     0.532250000000     0.529300000000     0          
O        O      0.569125000000     0.670000000000     0.922700000000     0          
O        O      0.562500000000     0.730750000000     0.875000000000     0          
O        O      0.552550000000     0.756300000000     0.936050000000     0          
O        O      0.563575000000     0.750000000000     0.500000000000     0          
O        O      0.571875000000     0.670100000000     0.529300000000     0          
T        Si     0.577450000000     0.722400000000     0.912200000000     0          
T        Si     0.547100000000     0.717750000000     0.529300000000     0          
O        O      0.680875000000     0.920000000000     0.577300000000     0          
O        O      0.687500000000     0.980750000000     0.625000000000     0          
O        O      0.697450000000     0.506300000000     0.563950000000     0          
O        O      0.678125000000     0.920100000000     0.970700000000     0          
T        Si     0.672550000000     0.972400000000     0.587800000000     0          
T        Si     0.702900000000     0.967750000000     0.970700000000     0          
O        O      0.569125000000     0.830000000000     0.577300000000     0          
O        O      0.562500000000     0.769250000000     0.625000000000     0          
O        O      0.552550000000     0.743700000000     0.563950000000     0          
O        O      0.571875000000     0.829900000000     0.970700000000     0          
T        Si     0.577450000000     0.777600000000     0.587800000000     0          
T        Si     0.547100000000     0.782250000000     0.970700000000     0          
O        O      0.500000000000     0.625000000000     0.755950000000     0          
O        O      0.625000000000     0.625000000000     0.825100000000     0          
O        O      0.500000000000     0.733700000000     0.834900000000     0          
O        O      0.625000000000     0.706650000000     0.726950000000     0          
O        O      0.673550000000     0.625000000000     0.773800000000     0          
O        O      0.694125000000     0.670000000000     0.827300000000     0          
O        O      0.677550000000     0.756300000000     0.813950000000     0          
O        O      0.688575000000     0.750000000000     0.750000000000     0          
O        O      0.696875000000     0.670100000000     0.720700000000     0          
T        Si     0.702450000000     0.722400000000     0.837800000000     0          
T        Si     0.672100000000     0.717750000000     0.720700000000     0          
T        Si     0.703975000000     0.625000000000     0.742850000000     0          
T        Si     0.671575000000     0.625000000000     0.813400000000     0          
O        O      0.500000000000     0.516300000000     0.834900000000     0          
O        O      0.625000000000     0.543350000000     0.726950000000     0          
O        O      0.576450000000     0.625000000000     0.773800000000     0          
O        O      0.555875000000     0.580000000000     0.827300000000     0          
O        O      0.572450000000     0.993700000000     0.813950000000     0          
O        O      0.561425000000     0.500000000000     0.750000000000     0          
O        O      0.553125000000     0.579900000000     0.720700000000     0          
T        Si     0.547550000000     0.527600000000     0.837800000000     0          
T        Si     0.577900000000     0.532250000000     0.720700000000     0          
T        Si     0.546025000000     0.625000000000     0.742850000000     0          
T        Si     0.578425000000     0.625000000000     0.813400000000     0          
O        O      0.500000000000     0.875000000000     0.744050000000     0          
O        O      0.625000000000     0.875000000000     0.674900000000     0          
O        O      0.500000000000     0.766300000000     0.665100000000     0          
O        O      0.625000000000     0.793350000000     0.773050000000     0          
O        O      0.673550000000     0.875000000000     0.726200000000     0          
O        O      0.694125000000     0.830000000000     0.672700000000     0          
O        O      0.677550000000     0.743700000000     0.686050000000     0          
O        O      0.696875000000     0.829900000000     0.779300000000     0          
T        Si     0.702450000000     0.777600000000     0.662200000000     0          
T        Si     0.672100000000     0.782250000000     0.779300000000     0          
T        Si     0.703975000000     0.875000000000     0.757150000000     0          
T        Si     0.671575000000     0.875000000000     0.686600000000     0          
O        O      0.500000000000     0.983700000000     0.665100000000     0          
O        O      0.625000000000     0.956650000000     0.773050000000     0          
O        O      0.576450000000     0.875000000000     0.726200000000     0          
O        O      0.555875000000     0.920000000000     0.672700000000     0          
O        O      0.572450000000     0.506300000000     0.686050000000     0          
O        O      0.553125000000     0.920100000000     0.779300000000     0          
T        Si     0.547550000000     0.972400000000     0.662200000000     0          
T        Si     0.577900000000     0.967750000000     0.779300000000     0          
T        Si     0.546025000000     0.875000000000     0.757150000000     0          
T        Si     0.578425000000     0.875000000000     0.686600000000     0          
O        O      0.555875000000     0.830000000000     0.672700000000     0          
O        O      0.572450000000     0.743700000000     0.686050000000     0          
O        O      0.561425000000     0.750000000000     0.750000000000     0          
O        O      0.553125000000     0.829900000000     0.779300000000     0          
T        Si     0.547550000000     0.777600000000     0.662200000000     0          
T        Si     0.577900000000     0.782250000000     0.779300000000     0          
O        O      0.694125000000     0.920000000000     0.672700000000     0          
O        O      0.677550000000     0.506300000000     0.686050000000     0          
O        O      0.688575000000     0.500000000000     0.750000000000     0          
O        O      0.696875000000     0.920100000000     0.779300000000     0          
T        Si     0.702450000000     0.972400000000     0.662200000000     0          
T        Si     0.672100000000     0.967750000000     0.779300000000     0          
O        O      0.555875000000     0.670000000000     0.827300000000     0          
O        O      0.572450000000     0.756300000000     0.813950000000     0          
O        O      0.553125000000     0.670100000000     0.720700000000     0          
T        Si     0.547550000000     0.722400000000     0.837800000000     0          
T        Si     0.577900000000     0.717750000000     0.720700000000     0          
O        O      0.694125000000     0.580000000000     0.827300000000     0          
O        O      0.677550000000     0.993700000000     0.813950000000     0          
O        O      0.696875000000     0.579900000000     0.720700000000     0          
T        Si     0.702450000000     0.527600000000     0.837800000000     0          
T        Si     0.672100000000     0.532250000000     0.720700000000     0          
O        O      0.875000000000     0.375000000000     0.005950000000     0          
O        O      0.750000000000     0.375000000000     0.075100000000     0          
O        O      0.875000000000     0.483700000000     0.084900000000     0          
O        O      0.750000000000     0.456650000000     0.476950000000     0          
O        O      0.798550000000     0.375000000000     0.023800000000     0          
O        O      0.819125000000     0.420000000000     0.077300000000     0          
O        O      0.812500000000     0.480750000000     0.125000000000     0          
O        O      0.802550000000     0.006300000000     0.063950000000     0          
O        O      0.813575000000     0.000000000000     0.000000000000     0          
O        O      0.821875000000     0.420100000000     0.470700000000     0          
T        Si     0.827450000000     0.472400000000     0.087800000000     0          
T        Si     0.797100000000     0.467750000000     0.470700000000     0          
T        Si     0.828975000000     0.375000000000     0.492850000000     0          
T        Si     0.796575000000     0.375000000000     0.063400000000     0          
O        O      0.875000000000     0.266300000000     0.084900000000     0          
O        O      0.750000000000     0.293350000000     0.476950000000     0          
O        O      0.951450000000     0.375000000000     0.023800000000     0          
O        O      0.930875000000     0.330000000000     0.077300000000     0          
O        O      0.937500000000     0.269250000000     0.125000000000     0          
O        O      0.947450000000     0.243700000000     0.063950000000     0          
O        O      0.936425000000     0.250000000000     0.000000000000     0          
O        O      0.928125000000     0.329900000000     0.470700000000     0          
T        Si     0.922550000000     0.277600000000     0.087800000000     0          
T        Si     0.952900000000     0.282250000000     0.470700000000     0          
T        Si     0.921025000000     0.375000000000     0.492850000000     0          
T        Si     0.953425000000     0.375000000000     0.063400000000     0          
O        O      0.875000000000     0.125000000000     0.494050000000     0          
O        O      0.750000000000     0.125000000000     0.424900000000     0          
O        O      0.875000000000     0.016300000000     0.415100000000     0          
O        O      0.750000000000     0.043350000000     0.023050000000     0          
O        O      0.798550000000     0.125000000000     0.476200000000     0          
O        O      0.819125000000     0.080000000000     0.422700000000     0          
O        O      0.812500000000     0.019250000000     0.375000000000     0          
O        O      0.802550000000     0.493700000000     0.436050000000     0          
O        O      0.821875000000     0.079900000000     0.029300000000     0          
T        Si     0.827450000000     0.027600000000     0.412200000000     0          
T        Si     0.797100000000     0.032250000000     0.029300000000     0          
T        Si     0.828975000000     0.125000000000     0.007150000000     0          
T        Si     0.796575000000     0.125000000000     0.436600000000     0          
O        O      0.875000000000     0.233700000000     0.415100000000     0          
O        O      0.750000000000     0.206650000000     0.023050000000     0          
O        O      0.951450000000     0.125000000000     0.476200000000     0          
O        O      0.930875000000     0.170000000000     0.422700000000     0          
O        O      0.937500000000     0.230750000000     0.375000000000     0          
O        O      0.947450000000     0.256300000000     0.436050000000     0          
O        O      0.928125000000     0.170100000000     0.029300000000     0          
T        Si     0.922550000000     0.222400000000     0.412200000000     0          
T        Si     0.952900000000     0.217750000000     0.029300000000     0          
T        Si     0.921025000000     0.125000000000     0.007150000000     0          
T        Si     0.953425000000     0.125000000000     0.436600000000     0          
O        O      0.930875000000     0.080000000000     0.422700000000     0          
O        O      0.937500000000     0.019250000000     0.375000000000     0          
O        O      0.947450000000     0.493700000000     0.436050000000     0          
O        O      0.936425000000     0.000000000000     0.000000000000     0          
O        O      0.928125000000     0.079900000000     0.029300000000     0          
T        Si     0.922550000000     0.027600000000     0.412200000000     0          
T        Si     0.952900000000     0.032250000000     0.029300000000     0          
O        O      0.819125000000     0.170000000000     0.422700000000     0          
O        O      0.812500000000     0.230750000000     0.375000000000     0          
O        O      0.802550000000     0.256300000000     0.436050000000     0          
O        O      0.813575000000     0.250000000000     0.000000000000     0          
O        O      0.821875000000     0.170100000000     0.029300000000     0          
T        Si     0.827450000000     0.222400000000     0.412200000000     0          
T        Si     0.797100000000     0.217750000000     0.029300000000     0          
O        O      0.930875000000     0.420000000000     0.077300000000     0          
O        O      0.937500000000     0.480750000000     0.125000000000     0          
O        O      0.947450000000     0.006300000000     0.063950000000     0          
O        O      0.928125000000     0.420100000000     0.470700000000     0          
T        Si     0.922550000000     0.472400000000     0.087800000000     0          
T        Si     0.952900000000     0.467750000000     0.470700000000     0          
O        O      0.819125000000     0.330000000000     0.077300000000     0          
O        O      0.812500000000     0.269250000000     0.125000000000     0          
O        O      0.802550000000     0.243700000000     0.063950000000     0          
O        O      0.821875000000     0.329900000000     0.470700000000     0          
T        Si     0.827450000000     0.277600000000     0.087800000000     0          
T        Si     0.797100000000     0.282250000000     0.470700000000     0          
O        O      0.750000000000     0.125000000000     0.255950000000     0          
O        O      0.875000000000     0.125000000000     0.325100000000     0          
O        O      0.750000000000     0.233700000000     0.334900000000     0          
O        O      0.875000000000     0.206650000000     0.226950000000     0          
O        O      0.923550000000     0.125000000000     0.273800000000     0          
O        O      0.944125000000     0.170000000000     0.327300000000     0          
O        O      0.927550000000     0.256300000000     0.313950000000     0          
O        O      0.938575000000     0.250000000000     0.250000000000     0          
O        O      0.946875000000     0.170100000000     0.220700000000     0          
T        Si     0.952450000000     0.222400000000     0.337800000000     0          
T        Si     0.922100000000     0.217750000000     0.220700000000     0          
T        Si     0.953975000000     0.125000000000     0.242850000000     0          
T        Si     0.921575000000     0.125000000000     0.313400000000     0          
O        O      0.750000000000     0.016300000000     0.334900000000     0          
O        O      0.875000000000     0.043350000000     0.226950000000     0          
O        O      0.826450000000     0.125000000000     0.273800000000     0          
O        O      0.805875000000     0.080000000000     0.327300000000     0          
O        O      0.822450000000     0.493700000000     0.313950000000     0          
O        O      0.811425000000     0.000000000000     0.250000000000     0          
O        O      0.803125000000     0.079900000000     0.220700000000     0          
T        Si     0.797550000000     0.027600000000     0.337800000000     0          
T        Si     0.827900000000     0.032250000000     0.220700000000     0          
T        Si     0.796025000000     0.125000000000     0.242850000000     0          
T        Si     0.828425000000     0.125000000000     0.313400000000     0          
O        O      0.750000000000     0.375000000000     0.244050000000     0          
O        O      0.875000000000     0.375000000000     0.174900000000     0          
O        O      0.750000000000     0.266300000000     0.165100000000     0          
O        O      0.875000000000     0.293350000000     0.273050000000     0          
O        O      0.923550000000     0.375000000000     0.226200000000     0          
O        O      0.944125000000     0.330000000000     0.172700000000     0          
O        O      0.927550000000     0.243700000000     0.186050000000     0          
O        O      0.946875000000     0.329900000000     0.279300000000     0          
T        Si     0.952450000000     0.277600000000     0.162200000000     0          
T        Si     0.922100000000     0.282250000000     0.279300000000     0          
T        Si     0.953975000000     0.375000000000     0.257150000000     0          
T        Si     0.921575000000     0.375000000000     0.186600000000     0          
O        O      0.750000000000     0.483700000000     0.165100000000     0          
O        O      0.875000000000     0.456650000000     0.273050000000     0          
O        O      0.826450000000     0.375000000000     0.226200000000     0          
O        O      0.805875000000     0.420000000000     0.172700000000     0          
O        O      0.822450000000     0.006300000000     0.186050000000     0          
O        O      0.803125000000     0.420100000000     0.279300000000     0          
T        Si     0.797550000000     0.472400000000     0.162200000000     0          
T        Si     0.827900000000     0.467750000000     0.279300000000     0          
T        Si     0.796025000000     0.375000000000     0.257150000000     0          
T        Si     0.828425000000     0.375000000000     0.186600000000     0          
O        O      0.805875000000     0.330000000000     0.172700000000     0          
O        O      0.822450000000     0.243700000000     0.186050000000     0          
O        O      0.811425000000     0.250000000000     0.250000000000     0          
O        O      0.803125000000     0.329900000000     0.279300000000     0          
T        Si     0.797550000000     0.277600000000     0.162200000000     0          
T        Si     0.827900000000     0.282250000000     0.279300000000     0          
O        O      0.944125000000     0.420000000000     0.172700000000     0          
O        O      0.927550000000     0.006300000000     0.186050000000     0          
O        O      0.938575000000     0.000000000000     0.250000000000     0          
O        O      0.946875000000     0.420100000000     0.279300000000     0          
T        Si     0.952450000000     0.472400000000     0.162200000000     0          
T        Si     0.922100000000     0.467750000000     0.279300000000     0          
O        O      0.805875000000     0.170000000000     0.327300000000     0          
O        O      0.822450000000     0.256300000000     0.313950000000     0          
O        O      0.803125000000     0.170100000000     0.220700000000     0          
T        Si     0.797550000000     0.222400000000     0.337800000000     0          
T        Si     0.827900000000     0.217750000000     0.220700000000     0          
O        O      0.944125000000     0.080000000000     0.327300000000     0          
O        O      0.927550000000     0.493700000000     0.313950000000     0          
O        O      0.946875000000     0.079900000000     0.220700000000     0          
T        Si     0.952450000000     0.027600000000     0.337800000000     0          
T        Si     0.922100000000     0.032250000000     0.220700000000     0          
O        O      0.875000000000     0.375000000000     0.505950000000     0          
O        O      0.750000000000     0.375000000000     0.575100000000     0          
O        O      0.875000000000     0.483700000000     0.584900000000     0          
O        O      0.750000000000     0.456650000000     0.976950000000     0          
O        O      0.798550000000     0.375000000000     0.523800000000     0          
O        O      0.819125000000     0.420000000000     0.577300000000     0          
O        O      0.812500000000     0.480750000000     0.625000000000     0          
O        O      0.802550000000     0.006300000000     0.563950000000     0          
O        O      0.813575000000     0.000000000000     0.500000000000     0          
O        O      0.821875000000     0.420100000000     0.970700000000     0          
T        Si     0.827450000000     0.472400000000     0.587800000000     0          
T        Si     0.797100000000     0.467750000000     0.970700000000     0          
T        Si     0.828975000000     0.375000000000     0.992850000000     0          
T        Si     0.796575000000     0.375000000000     0.563400000000     0          
O        O      0.875000000000     0.266300000000     0.584900000000     0          
O        O      0.750000000000     0.293350000000     0.976950000000     0          
O        O      0.951450000000     0.375000000000     0.523800000000     0          
O        O      0.930875000000     0.330000000000     0.577300000000     0          
O        O      0.937500000000     0.269250000000     0.625000000000     0          
O        O      0.947450000000     0.243700000000     0.563950000000     0          
O        O      0.936425000000     0.250000000000     0.500000000000     0          
O        O      0.928125000000     0.329900000000     0.970700000000     0          
T        Si     0.922550000000     0.277600000000     0.587800000000     0          
T        Si     0.952900000000     0.282250000000     0.970700000000     0          
T        Si     0.921025000000     0.375000000000     0.992850000000     0          
T        Si     0.953425000000     0.375000000000     0.563400000000     0          
O        O      0.875000000000     0.125000000000     0.994050000000     0          
O        O      0.750000000000     0.125000000000     0.924900000000     0          
O        O      0.875000000000     0.016300000000     0.915100000000     0          
O        O      0.750000000000     0.043350000000     0.523050000000     0          
O        O      0.798550000000     0.125000000000     0.976200000000     0          
O        O      0.819125000000     0.080000000000     0.922700000000     0          
O        O      0.812500000000     0.019250000000     0.875000000000     0          
O        O      0.802550000000     0.493700000000     0.936050000000     0          
O        O      0.821875000000     0.079900000000     0.529300000000     0          
T        Si     0.827450000000     0.027600000000     0.912200000000     0          
T        Si     0.797100000000     0.032250000000     0.529300000000     0          
T        Si     0.828975000000     0.125000000000     0.507150000000     0          
T        Si     0.796575000000     0.125000000000     0.936600000000     0          
O        O      0.875000000000     0.233700000000     0.915100000000     0          
O        O      0.750000000000     0.206650000000     0.523050000000     0          
O        O      0.951450000000     0.125000000000     0.976200000000     0          
O        O      0.930875000000     0.170000000000     0.922700000000     0          
O        O      0.937500000000     0.230750000000     0.875000000000     0          
O        O      0.947450000000     0.256300000000     0.936050000000     0          
O        O      0.928125000000     0.170100000000     0.529300000000     0          
T        Si     0.922550000000     0.222400000000     0.912200000000     0          
T        Si     0.952900000000     0.217750000000     0.529300000000     0          
T        Si     0.921025000000     0.125000000000     0.507150000000     0          
T        Si     0.953425000000     0.125000000000     0.936600000000     0          
O        O      0.930875000000     0.080000000000     0.922700000000     0          
O        O      0.937500000000     0.019250000000     0.875000000000     0          
O        O      0.947450000000     0.493700000000     0.936050000000     0          
O        O      0.936425000000     0.000000000000     0.500000000000     0          
O        O      0.928125000000     0.079900000000     0.529300000000     0          
T        Si     0.922550000000     0.027600000000     0.912200000000     0          
T        Si     0.952900000000     0.032250000000     0.529300000000     0          
O        O      0.819125000000     0.170000000000     0.922700000000     0          
O        O      0.812500000000     0.230750000000     0.875000000000     0          
O        O      0.802550000000     0.256300000000     0.936050000000     0          
O        O      0.813575000000     0.250000000000     0.500000000000     0          
O        O      0.821875000000     0.170100000000     0.529300000000     0          
T        Si     0.827450000000     0.222400000000     0.912200000000     0          
T        Si     0.797100000000     0.217750000000     0.529300000000     0          
O        O      0.930875000000     0.420000000000     0.577300000000     0          
O        O      0.937500000000     0.480750000000     0.625000000000     0          
O        O      0.947450000000     0.006300000000     0.563950000000     0          
O        O      0.928125000000     0.420100000000     0.970700000000     0          
T        Si     0.922550000000     0.472400000000     0.587800000000     0          
T        Si     0.952900000000     0.467750000000     0.970700000000     0          
O        O      0.819125000000     0.330000000000     0.577300000000     0          
O        O      0.812500000000     0.269250000000     0.625000000000     0          
O        O      0.802550000000     0.243700000000     0.563950000000     0          
O        O      0.821875000000     0.329900000000     0.970700000000     0          
T        Si     0.827450000000     0.277600000000     0.587800000000     0          
T        Si     0.797100000000     0.282250000000     0.970700000000     0          
O        O      0.750000000000     0.125000000000     0.755950000000     0          
O        O      0.875000000000     0.125000000000     0.825100000000     0          
O        O      0.750000000000     0.233700000000     0.834900000000     0          
O        O      0.875000000000     0.206650000000     0.726950000000     0          
O        O      0.923550000000     0.125000000000     0.773800000000     0          
O        O      0.944125000000     0.170000000000     0.827300000000     0          
O        O      0.927550000000     0.256300000000     0.813950000000     0          
O        O      0.938575000000     0.250000000000     0.750000000000     0          
O        O      0.946875000000     0.170100000000     0.720700000000     0          
T        Si     0.952450000000     0.222400000000     0.837800000000     0          
T        Si     0.922100000000     0.217750000000     0.720700000000     0          
T        Si     0.953975000000     0.125000000000     0.742850000000     0          
T        Si     0.921575000000     0.125000000000     0.813400000000     0          
O        O      0.750000000000     0.016300000000     0.834900000000     0          
O        O      0.875000000000     0.043350000000     0.726950000000     0          
O        O      0.826450000000     0.125000000000     0.773800000000     0          
O        O      0.805875000000     0.080000000000     0.827300000000     0          
O        O      0.822450000000     0.493700000000     0.813950000000     0          
O        O      0.811425000000     0.000000000000     0.750000000000     0          
O        O      0.803125000000     0.079900000000     0.720700000000     0          
T        Si     0.797550000000     0.027600000000     0.837800000000     0          
T        Si     0.827900000000     0.032250000000     0.720700000000     0          
T        Si     0.796025000000     0.125000000000     0.742850000000     0          
T        Si     0.828425000000     0.125000000000     0.813400000000     0          
O        O      0.750000000000     0.375000000000     0.744050000000     0          
O        O      0.875000000000     0.375000000000     0.674900000000     0          
O        O      0.750000000000     0.266300000000     0.665100000000     0          
O        O      0.875000000000     0.293350000000     0.773050000000     0          
O        O      0.923550000000     0.375000000000     0.726200000000     0          
O        O      0.944125000000     0.330000000000     0.672700000000     0          
O        O      0.927550000000     0.243700000000     0.686050000000     0          
O        O      0.946875000000     0.329900000000     0.779300000000     0          
T        Si     0.952450000000     0.277600000000     0.662200000000     0          
T        Si     0.922100000000     0.282250000000     0.779300000000     0          
T        Si     0.953975000000     0.375000000000     0.757150000000     0          
T        Si     0.921575000000     0.375000000000     0.686600000000     0          
O        O      0.750000000000     0.483700000000     0.665100000000     0          
O        O      0.875000000000     0.456650000000     0.773050000000     0          
O        O      0.826450000000     0.375000000000     0.726200000000     0          
O        O      0.805875000000     0.420000000000     0.672700000000     0          
O        O      0.822450000000     0.006300000000     0.686050000000     0          
O        O      0.803125000000     0.420100000000     0.779300000000     0          
T        Si     0.797550000000     0.472400000000     0.662200000000     0          
T        Si     0.827900000000     0.467750000000     0.779300000000     0          
T        Si     0.796025000000     0.375000000000     0.757150000000     0          
T        Si     0.828425000000     0.375000000000     0.686600000000     0          
O        O      0.805875000000     0.330000000000     0.672700000000     0          
O        O      0.822450000000     0.243700000000     0.686050000000     0          
O        O      0.811425000000     0.250000000000     0.750000000000     0          
O        O      0.803125000000     0.329900000000     0.779300000000     0          
T        Si     0.797550000000     0.277600000000     0.662200000000     0          
T        Si     0.827900000000     0.282250000000     0.779300000000     0          
O        O      0.944125000000     0.420000000000     0.672700000000     0          
O        O      0.927550000000     0.006300000000     0.686050000000     0          
O        O      0.938575000000     0.000000000000     0.750000000000     0          
O        O      0.946875000000     0.420100000000     0.779300000000     0          
T        Si     0.952450000000     0.472400000000     0.662200000000     0          
T        Si     0.922100000000     0.467750000000     0.779300000000     0          
O        O      0.805875000000     0.170000000000     0.827300000000     0          
O        O      0.822450000000     0.256300000000     0.813950000000     0          
O        O      0.803125000000     0.170100000000     0.720700000000     0          
T        Si     0.797550000000     0.222400000000     0.837800000000     0          
T        Si     0.827900000000     0.217750000000     0.720700000000     0          
O        O      0.944125000000     0.080000000000     0.827300000000     0          
O        O      0.927550000000     0.493700000000     0.813950000000     0          
O        O      0.946875000000     0.079900000000     0.720700000000     0          
T        Si     0.952450000000     0.027600000000     0.837800000000     0          
T        Si     0.922100000000     0.032250000000     0.720700000000     0          
O        O      0.875000000000     0.875000000000     0.005950000000     0          
O        O      0.750000000000     0.875000000000     0.075100000000     0          
O        O      0.875000000000     0.983700000000     0.084900000000     0          
O        O      0.750000000000     0.956650000000     0.476950000000     0          
O        O      0.798550000000     0.875000000000     0.023800000000     0          
O        O      0.819125000000     0.920000000000     0.077300000000     0          
O        O      0.812500000000     0.980750000000     0.125000000000     0          
O        O      0.802550000000     0.506300000000     0.063950000000     0          
O        O      0.813575000000     0.500000000000     0.000000000000     0          
O        O      0.821875000000     0.920100000000     0.470700000000     0          
T        Si     0.827450000000     0.972400000000     0.087800000000     0          
T        Si     0.797100000000     0.967750000000     0.470700000000     0          
T        Si     0.828975000000     0.875000000000     0.492850000000     0          
T        Si     0.796575000000     0.875000000000     0.063400000000     0          
O        O      0.875000000000     0.766300000000     0.084900000000     0          
O        O      0.750000000000     0.793350000000     0.476950000000     0          
O        O      0.951450000000     0.875000000000     0.023800000000     0          
O        O      0.930875000000     0.830000000000     0.077300000000     0          
O        O      0.937500000000     0.769250000000     0.125000000000     0          
O        O      0.947450000000     0.743700000000     0.063950000000     0          
O        O      0.936425000000     0.750000000000     0.000000000000     0          
O        O      0.928125000000     0.829900000000     0.470700000000     0          
T        Si     0.922550000000     0.777600000000     0.087800000000     0          
T        Si     0.952900000000     0.782250000000     0.470700000000     0          
T        Si     0.921025000000     0.875000000000     0.492850000000     0          
T        Si     0.953425000000     0.875000000000     0.063400000000     0          
O        O      0.875000000000     0.625000000000     0.494050000000     0          
O        O      0.750000000000     0.625000000000     0.424900000000     0          
O        O      0.875000000000     0.516300000000     0.415100000000     0          
O        O      0.750000000000     0.543350000000     0.023050000000     0          
O        O      0.798550000000     0.625000000000     0.476200000000     0          
O        O      0.819125000000     0.580000000000     0.422700000000     0          
O        O      0.812500000000     0.519250000000     0.375000000000     0          
O        O      0.802550000000     0.993700000000     0.436050000000     0          
O        O      0.821875000000     0.579900000000     0.029300000000     0          
T        Si     0.827450000000     0.527600000000     0.412200000000     0          
T        Si     0.797100000000     0.532250000000     0.029300000000     0          
T        Si     0.828975000000     0.625000000000     0.007150000000     0          
T        Si     0.796575000000     0.625000000000     0.436600000000     0          
O        O      0.875000000000     0.733700000000     0.415100000000     0          
O        O      0.750000000000     0.706650000000     0.023050000000     0          
O        O      0.951450000000     0.625000000000     0.476200000000     0          
O        O      0.930875000000     0.670000000000     0.422700000000     0          
O        O      0.937500000000     0.730750000000     0.375000000000     0          
O        O      0.947450000000     0.756300000000     0.436050000000     0          
O        O      0.928125000000     0.670100000000     0.029300000000     0          
T        Si     0.922550000000     0.722400000000     0.412200000000     0          
T        Si     0.952900000000     0.717750000000     0.029300000000     0          
T        Si     0.921025000000     0.625000000000     0.007150000000     0          
T        Si     0.953425000000     0.625000000000     0.436600000000     0          
O        O      0.930875000000     0.580000000000     0.422700000000     0          
O        O      0.937500000000     0.519250000000     0.375000000000     0          
O        O      0.947450000000     0.993700000000     0.436050000000     0          
O        O      0.936425000000     0.500000000000     0.000000000000     0          
O        O      0.928125000000     0.579900000000     0.029300000000     0          
T        Si     0.922550000000     0.527600000000     0.412200000000     0          
T        Si     0.952900000000     0.532250000000     0.029300000000     0          
O        O      0.819125000000     0.670000000000     0.422700000000     0          
O        O      0.812500000000     0.730750000000     0.375000000000     0          
O        O      0.802550000000     0.756300000000     0.436050000000     0          
O        O      0.813575000000     0.750000000000     0.000000000000     0          
O        O      0.821875000000     0.670100000000     0.029300000000     0          
T        Si     0.827450000000     0.722400000000     0.412200000000     0          
T        Si     0.797100000000     0.717750000000     0.029300000000     0          
O        O      0.930875000000     0.920000000000     0.077300000000     0          
O        O      0.937500000000     0.980750000000     0.125000000000     0          
O        O      0.947450000000     0.506300000000     0.063950000000     0          
O        O      0.928125000000     0.920100000000     0.470700000000     0          
T        Si     0.922550000000     0.972400000000     0.087800000000     0          
T        Si     0.952900000000     0.967750000000     0.470700000000     0          
O        O      0.819125000000     0.830000000000     0.077300000000     0          
O        O      0.812500000000     0.769250000000     0.125000000000     0          
O        O      0.802550000000     0.743700000000     0.063950000000     0          
O        O      0.821875000000     0.829900000000     0.470700000000     0          
T        Si     0.827450000000     0.777600000000     0.087800000000     0          
T        Si     0.797100000000     0.782250000000     0.470700000000     0          
O        O      0.750000000000     0.625000000000     0.255950000000     0          
O        O      0.875000000000     0.625000000000     0.325100000000     0          
O        O      0.750000000000     0.733700000000     0.334900000000     0          
O        O      0.875000000000     0.706650000000     0.226950000000     0          
O        O      0.923550000000     0.625000000000     0.273800000000     0          
O        O      0.944125000000     0.670000000000     0.327300000000     0          
O        O      0.927550000000     0.756300000000     0.313950000000     0          
O        O      0.938575000000     0.750000000000     0.250000000000     0          
O        O      0.946875000000     0.670100000000     0.220700000000     0          
T        Si     0.952450000000     0.722400000000     0.337800000000     0          
T        Si     0.922100000000     0.717750000000     0.220700000000     0          
T        Si     0.953975000000     0.625000000000     0.242850000000     0          
T        Si     0.921575000000     0.625000000000     0.313400000000     0          
O        O      0.750000000000     0.516300000000     0.334900000000     0          
O        O      0.875000000000     0.543350000000     0.226950000000     0          
O        O      0.826450000000     0.625000000000     0.273800000000     0          
O        O      0.805875000000     0.580000000000     0.327300000000     0          
O        O      0.822450000000     0.993700000000     0.313950000000     0          
O        O      0.811425000000     0.500000000000     0.250000000000     0          
O        O      0.803125000000     0.579900000000     0.220700000000     0          
T        Si     0.797550000000     0.527600000000     0.337800000000     0          
T        Si     0.827900000000     0.532250000000     0.220700000000     0          
T        Si     0.796025000000     0.625000000000     0.242850000000     0          
T        Si     0.828425000000     0.625000000000     0.313400000000     0          
O        O      0.750000000000     0.875000000000     0.244050000000     0          
O        O      0.875000000000     0.875000000000     0.174900000000     0          
O        O      0.750000000000     0.766300000000     0.165100000000     0          
O        O      0.875000000000     0.793350000000     0.273050000000     0          
O        O      0.923550000000     0.875000000000     0.226200000000     0          
O        O      0.944125000000     0.830000000000     0.172700000000     0          
O        O      0.927550000000     0.743700000000     0.186050000000     0          
O        O      0.946875000000     0.829900000000     0.279300000000     0          
T        Si     0.952450000000     0.777600000000     0.162200000000     0          
T        Si     0.922100000000     0.782250000000     0.279300000000     0          
T        Si     0.953975000000     0.875000000000     0.257150000000     0          
T        Si     0.921575000000     0.875000000000     0.186600000000     0          
O        O      0.750000000000     0.983700000000     0.165100000000     0          
O        O      0.875000000000     0.956650000000     0.273050000000     0          
O        O      0.826450000000     0.875000000000     0.226200000000     0          
O        O      0.805875000000     0.920000000000     0.172700000000     0          
O        O      0.822450000000     0.506300000000     0.186050000000     0          
O        O      0.803125000000     0.920100000000     0.279300000000     0          
T        Si     0.797550000000     0.972400000000     0.162200000000     0          
T        Si     0.827900000000     0.967750000000     0.279300000000     0          
T        Si     0.796025000000     0.875000000000     0.257150000000     0          
T        Si     0.828425000000     0.875000000000     0.186600000000     0          
O        O      0.805875000000     0.830000000000     0.172700000000     0          
O        O      0.822450000000     0.743700000000     0.186050000000     0          
O        O      0.811425000000     0.750000000000     0.250000000000     0          
O        O      0.803125000000     0.829900000000     0.279300000000     0          
T        Si     0.797550000000     0.777600000000     0.162200000000     0          
T        Si     0.827900000000     0.782250000000     0.279300000000     0          
O        O      0.944125000000     0.920000000000     0.172700000000     0          
O        O      0.927550000000     0.506300000000     0.186050000000     0          
O        O      0.938575000000     0.500000000000     0.250000000000     0          
O        O      0.946875000000     0.920100000000     0.279300000000     0          
T        Si     0.952450000000     0.972400000000     0.162200000000     0          
T        Si     0.922100000000     0.967750000000     0.279300000000     0          
O        O      0.805875000000     0.670000000000     0.327300000000     0          
O        O      0.822450000000     0.756300000000     0.313950000000     0          
O        O      0.803125000000     0.670100000000     0.220700000000     0          
T        Si     0.797550000000     0.722400000000     0.337800000000     0          
T        Si     0.827900000000     0.717750000000     0.220700000000     0          
O        O      0.944125000000     0.580000000000     0.327300000000     0          
O        O      0.927550000000     0.993700000000     0.313950000000     0          
O        O      0.946875000000     0.579900000000     0.220700000000     0          
T        Si     0.952450000000     0.527600000000     0.337800000000     0          
T        Si     0.922100000000     0.532250000000     0.220700000000     0          
O        O      0.875000000000     0.875000000000     0.505950000000     0          
O        O      0.750000000000     0.875000000000     0.575100000000     0          
O        O      0.875000000000     0.983700000000     0.584900000000     0          
O        O      0.750000000000     0.956650000000     0.976950000000     0          
O        O      0.798550000000     0.875000000000     0.523800000000     0          
O        O      0.819125000000     0.920000000000     0.577300000000     0          
O        O      0.812500000000     0.980750000000     0.625000000000     0          
O        O      0.802550000000     0.506300000000     0.563950000000     0          
O        O      0.813575000000     0.500000000000     0.500000000000     0          
O        O      0.821875000000     0.920100000000     0.970700000000     0          
T        Si     0.827450000000     0.972400000000     0.587800000000     0          
T        Si     0.797100000000     0.967750000000     0.970700000000     0          
T        Si     0.828975000000     0.875000000000     0.992850000000     0          
T        Si     0.796575000000     0.875000000000     0.563400000000     0          
O        O      0.875000000000     0.766300000000     0.584900000000     0          
O        O      0.750000000000     0.793350000000     0.976950000000     0          
O        O      0.951450000000     0.875000000000     0.523800000000     0          
O        O      0.930875000000     0.830000000000     0.577300000000     0          
O        O      0.937500000000     0.769250000000     0.625000000000     0          
O        O      0.947450000000     0.743700000000     0.563950000000     0          
O        O      0.936425000000     0.750000000000     0.500000000000     0          
O        O      0.928125000000     0.829900000000     0.970700000000     0          
T        Si     0.922550000000     0.777600000000     0.587800000000     0          
T        Si     0.952900000000     0.782250000000     0.970700000000     0          
T        Si     0.921025000000     0.875000000000     0.992850000000     0          
T        Si     0.953425000000     0.875000000000     0.563400000000     0          
O        O      0.875000000000     0.625000000000     0.994050000000     0          
O        O      0.750000000000     0.625000000000     0.924900000000     0          
O        O      0.875000000000     0.516300000000     0.915100000000     0          
O        O      0.750000000000     0.543350000000     0.523050000000     0          
O        O      0.798550000000     0.625000000000     0.976200000000     0          
O        O      0.819125000000     0.580000000000     0.922700000000     0          
O        O      0.812500000000     0.519250000000     0.875000000000     0          
O        O      0.802550000000     0.993700000000     0.936050000000     0          
O        O      0.821875000000     0.579900000000     0.529300000000     0          
T        Si     0.827450000000     0.527600000000     0.912200000000     0          
T        Si     0.797100000000     0.532250000000     0.529300000000     0          
T        Si     0.828975000000     0.625000000000     0.507150000000     0          
T        Si     0.796575000000     0.625000000000     0.936600000000     0          
O        O      0.875000000000     0.733700000000     0.915100000000     0          
O        O      0.750000000000     0.706650000000     0.523050000000     0          
O        O      0.951450000000     0.625000000000     0.976200000000     0          
O        O      0.930875000000     0.670000000000     0.922700000000     0          
O        O      0.937500000000     0.730750000000     0.875000000000     0          
O        O      0.947450000000     0.756300000000     0.936050000000     0          
O        O      0.928125000000     0.670100000000     0.529300000000     0          
T        Si     0.922550000000     0.722400000000     0.912200000000     0          
T        Si     0.952900000000     0.717750000000     0.529300000000     0          
T        Si     0.921025000000     0.625000000000     0.507150000000     0          
T        Si     0.953425000000     0.625000000000     0.936600000000     0          
O        O      0.930875000000     0.580000000000     0.922700000000     0          
O        O      0.937500000000     0.519250000000     0.875000000000     0          
O        O      0.947450000000     0.993700000000     0.936050000000     0          
O        O      0.936425000000     0.500000000000     0.500000000000     0          
O        O      0.928125000000     0.579900000000     0.529300000000     0          
T        Si     0.922550000000     0.527600000000     0.912200000000     0          
T        Si     0.952900000000     0.532250000000     0.529300000000     0          
O        O      0.819125000000     0.670000000000     0.922700000000     0          
O        O      0.812500000000     0.730750000000     0.875000000000     0          
O        O      0.802550000000     0.756300000000     0.936050000000     0          
O        O      0.813575000000     0.750000000000     0.500000000000     0          
O        O      0.821875000000     0.670100000000     0.529300000000     0          
T        Si     0.827450000000     0.722400000000     0.912200000000     0          
T        Si     0.797100000000     0.717750000000     0.529300000000     0          
O        O      0.930875000000     0.920000000000     0.577300000000     0          
O        O      0.937500000000     0.980750000000     0.625000000000     0          
O        O      0.947450000000     0.506300000000     0.563950000000     0          
O        O      0.928125000000     0.920100000000     0.970700000000     0          
T        Si     0.922550000000     0.972400000000     0.587800000000     0          
T        Si     0.952900000000     0.967750000000     0.970700000000     0          
O        O      0.819125000000     0.830000000000     0.577300000000     0          
O        O      0.812500000000     0.769250000000     0.625000000000     0          
O        O      0.802550000000     0.743700000000     0.563950000000     0          
O        O      0.821875000000     0.829900000000     0.970700000000     0          
T        Si     0.827450000000     0.777600000000     0.587800000000     0          
T        Si     0.797100000000     0.782250000000     0.970700000000     0          
O        O      0.750000000000     0.625000000000     0.755950000000     0          
O        O      0.875000000000     0.625000000000     0.825100000000     0          
O        O      0.750000000000     0.733700000000     0.834900000000     0          
O        O      0.875000000000     0.706650000000     0.726950000000     0          
O        O      0.923550000000     0.625000000000     0.773800000000     0          
O        O      0.944125000000     0.670000000000     0.827300000000     0          
O        O      0.927550000000     0.756300000000     0.813950000000     0          
O        O      0.938575000000     0.750000000000     0.750000000000     0          
O        O      0.946875000000     0.670100000000     0.720700000000     0          
T        Si     0.952450000000     0.722400000000     0.837800000000     0          
T        Si     0.922100000000     0.717750000000     0.720700000000     0          
T        Si     0.953975000000     0.625000000000     0.742850000000     0          
T        Si     0.921575000000     0.625000000000     0.813400000000     0          
O        O      0.750000000000     0.516300000000     0.834900000000     0          
O        O      0.875000000000     0.543350000000     0.726950000000     0          
O        O      0.826450000000     0.625000000000     0.773800000000     0          
O        O      0.805875000000     0.580000000000     0.827300000000     0          
O        O      0.822450000000     0.993700000000     0.813950000000     0          
O        O      0.811425000000     0.500000000000     0.750000000000     0          
O        O      0.803125000000     0.579900000000     0.720700000000     0          
T        Si     0.797550000000     0.527600000000     0.837800000000     0          
T        Si     0.827900000000     0.532250000000     0.720700000000     0          
T        Si     0.796025000000     0.625000000000     0.742850000000     0          
T        Si     0.828425000000     0.625000000000     0.813400000000     0          
O        O      0.750000000000     0.875000000000     0.744050000000     0          
O        O      0.875000000000     0.875000000000     0.674900000000     0          
O        O      0.750000000000     0.766300000000     0.665100000000     0          
O        O      0.875000000000     0.793350000000     0.773050000000     0          
O        O      0.923550000000     0.875000000000     0.726200000000     0          
O        O      0.944125000000     0.830000000000     0.672700000000     0          
O        O      0.927550000000     0.743700000000     0.686050000000     0          
O        O      0.946875000000     0.829900000000     0.779300000000     0          
T        Si     0.952450000000     0.777600000000     0.662200000000     0          
T        Si     0.922100000000     0.782250000000     0.779300000000     0          
T        Si     0.953975000000     0.875000000000     0.757150000000     0          
T        Si     0.921575000000     0.875000000000     0.686600000000     0          
O        O      0.750000000000     0.983700000000     0.665100000000     0          
O        O      0.875000000000     0.956650000000     0.773050000000     0          
O        O      0.826450000000     0.875000000000     0.726200000000     0          
O        O      0.805875000000     0.920000000000     0.672700000000     0          
O        O      0.822450000000     0.506300000000     0.686050000000     0          
O        O      0.803125000000     0.920100000000     0.779300000000     0          
T        Si     0.797550000000     0.972400000000     0.662200000000     0          
T        Si     0.827900000000     0.967750000000     0.779300000000     0          
T        Si     0.796025000000     0.875000000000     0.757150000000     0          
T        Si     0.828425000000     0.875000000000     0.686600000000     0          
O        O      0.805875000000     0.830000000000     0.672700000000     0          
O        O      0.822450000000     0.743700000000     0.686050000000     0          
O        O      0.811425000000     0.750000000000     0.750000000000     0          
O        O      0.803125000000     0.829900000000     0.779300000000     0          
T        Si     0.797550000000     0.777600000000     0.662200000000     0          
T        Si     0.827900000000     0.782250000000     0.779300000000     0          
O        O      0.944125000000     0.920000000000     0.672700000000     0          
O        O      0.927550000000     0.506300000000     0.686050000000     0          
O        O      0.938575000000     0.500000000000     0.750000000000     0          
O        O      0.946875000000     0.920100000000     0.779300000000     0          
T        Si     0.952450000000     0.972400000000     0.662200000000     0          
T        Si     0.922100000000     0.967750000000     0.779300000000     0          
O        O      0.805875000000     0.670000000000     0.827300000000     0          
O        O      0.822450000000     0.756300000000     0.813950000000     0          
O        O      0.803125000000     0.670100000000     0.720700000000     0          
T        Si     0.797550000000     0.722400000000     0.837800000000     0          
T        Si     0.827900000000     0.717750000000     0.720700000000     0          
O        O      0.944125000000     0.580000000000     0.827300000000     0          
O        O      0.927550000000     0.993700000000     0.813950000000     0          
O        O      0.946875000000     0.579900000000     0.720700000000     0          
T        Si     0.952450000000     0.527600000000     0.837800000000     0          
T        Si     0.922100000000     0.532250000000     0.720700000000     0          


