data_zeolite

_audit_creation_method RASPA-1.0
_audit_creation_date 2021-1-23
_audit_author_name ''

_cell_length_a    49.7345
_cell_length_b    49.7345
_cell_length_c    49.7345
_cell_angle_alpha 90
_cell_angle_beta  90
_cell_angle_gamma 90
_cell_volume      123020

_symmetry_cell_setting          cubic
_symmetry_space_group_name_Hall 'P 1'
_symmetry_space_group_name_H-M  'P 1'
_symmetry_Int_Tables_number     1

_symmetry_equiv_pos_as_xyz 'x,y,z'

loop_
_atom_site_label
_atom_site_type_symbol
_atom_site_fract_x
_atom_site_fract_y
_atom_site_fract_z
_atom_site_charge
Si       Si     0.180950000000     0.075045000000     0.031060000000     0          
Si       Si     0.119010000000     0.075130000000     0.031125000000     0          
Si       Si     0.218915000000     0.125000000000     0.031085000000     0          
O        O      0.150000000000     0.083280000000     0.035710000000     0          
O        O      0.200255000000     0.099765000000     0.039005000000     0          
O        O      0.185600000000     0.067260000000     0.000000000000     0          
O        O      0.250000000000     0.117325000000     0.035790000000     0          
O        O      0.114215000000     0.067670000000     0.000000000000     0          
O        O      0.188325000000     0.049475000000     0.049475000000     0          
O        O      0.100040000000     0.100040000000     0.039340000000     0          
O        O      0.111695000000     0.049525000000     0.049525000000     0          
Si       Si     0.424955000000     0.180950000000     0.031060000000     0          
Si       Si     0.424870000000     0.119010000000     0.031125000000     0          
Si       Si     0.375000000000     0.218915000000     0.031085000000     0          
O        O      0.416720000000     0.150000000000     0.035710000000     0          
O        O      0.400235000000     0.200255000000     0.039005000000     0          
O        O      0.432740000000     0.185600000000     0.000000000000     0          
O        O      0.382675000000     0.250000000000     0.035790000000     0          
O        O      0.432330000000     0.114215000000     0.000000000000     0          
O        O      0.450525000000     0.188325000000     0.049475000000     0          
O        O      0.399960000000     0.100040000000     0.039340000000     0          
O        O      0.450475000000     0.111695000000     0.049525000000     0          
Si       Si     0.319050000000     0.424955000000     0.031060000000     0          
Si       Si     0.380990000000     0.424870000000     0.031125000000     0          
Si       Si     0.281085000000     0.375000000000     0.031085000000     0          
O        O      0.350000000000     0.416720000000     0.035710000000     0          
O        O      0.299745000000     0.400235000000     0.039005000000     0          
O        O      0.314400000000     0.432740000000     0.000000000000     0          
O        O      0.250000000000     0.382675000000     0.035790000000     0          
O        O      0.385785000000     0.432330000000     0.000000000000     0          
O        O      0.311675000000     0.450525000000     0.049475000000     0          
O        O      0.399960000000     0.399960000000     0.039340000000     0          
O        O      0.388305000000     0.450475000000     0.049525000000     0          
Si       Si     0.075045000000     0.319050000000     0.031060000000     0          
Si       Si     0.075130000000     0.380990000000     0.031125000000     0          
Si       Si     0.125000000000     0.281085000000     0.031085000000     0          
O        O      0.083280000000     0.350000000000     0.035710000000     0          
O        O      0.099765000000     0.299745000000     0.039005000000     0          
O        O      0.067260000000     0.314400000000     0.000000000000     0          
O        O      0.117325000000     0.250000000000     0.035790000000     0          
O        O      0.067670000000     0.385785000000     0.000000000000     0          
O        O      0.049475000000     0.311675000000     0.049475000000     0          
O        O      0.100040000000     0.399960000000     0.039340000000     0          
O        O      0.049525000000     0.388305000000     0.049525000000     0          
Si       Si     0.180950000000     0.424955000000     0.468940000000     0          
Si       Si     0.119010000000     0.424870000000     0.468875000000     0          
Si       Si     0.218915000000     0.375000000000     0.468915000000     0          
O        O      0.150000000000     0.416720000000     0.464290000000     0          
O        O      0.200255000000     0.400235000000     0.460995000000     0          
O        O      0.185600000000     0.432740000000     0.000000000000     0          
O        O      0.250000000000     0.382675000000     0.464210000000     0          
O        O      0.114215000000     0.432330000000     0.000000000000     0          
O        O      0.188325000000     0.450525000000     0.450525000000     0          
O        O      0.100040000000     0.399960000000     0.460660000000     0          
O        O      0.111695000000     0.450475000000     0.450475000000     0          
Si       Si     0.075045000000     0.180950000000     0.468940000000     0          
Si       Si     0.075130000000     0.119010000000     0.468875000000     0          
Si       Si     0.125000000000     0.218915000000     0.468915000000     0          
O        O      0.083280000000     0.150000000000     0.464290000000     0          
O        O      0.099765000000     0.200255000000     0.460995000000     0          
O        O      0.067260000000     0.185600000000     0.000000000000     0          
O        O      0.117325000000     0.250000000000     0.464210000000     0          
O        O      0.067670000000     0.114215000000     0.000000000000     0          
O        O      0.049475000000     0.188325000000     0.450525000000     0          
O        O      0.100040000000     0.100040000000     0.460660000000     0          
O        O      0.049525000000     0.111695000000     0.450475000000     0          
Si       Si     0.319050000000     0.075045000000     0.468940000000     0          
Si       Si     0.380990000000     0.075130000000     0.468875000000     0          
Si       Si     0.281085000000     0.125000000000     0.468915000000     0          
O        O      0.350000000000     0.083280000000     0.464290000000     0          
O        O      0.299745000000     0.099765000000     0.460995000000     0          
O        O      0.314400000000     0.067260000000     0.000000000000     0          
O        O      0.250000000000     0.117325000000     0.464210000000     0          
O        O      0.385785000000     0.067670000000     0.000000000000     0          
O        O      0.311675000000     0.049475000000     0.450525000000     0          
O        O      0.399960000000     0.100040000000     0.460660000000     0          
O        O      0.388305000000     0.049525000000     0.450475000000     0          
Si       Si     0.424955000000     0.319050000000     0.468940000000     0          
Si       Si     0.424870000000     0.380990000000     0.468875000000     0          
Si       Si     0.375000000000     0.281085000000     0.468915000000     0          
O        O      0.416720000000     0.350000000000     0.464290000000     0          
O        O      0.400235000000     0.299745000000     0.460995000000     0          
O        O      0.432740000000     0.314400000000     0.000000000000     0          
O        O      0.382675000000     0.250000000000     0.464210000000     0          
O        O      0.432330000000     0.385785000000     0.000000000000     0          
O        O      0.450525000000     0.311675000000     0.450525000000     0          
O        O      0.399960000000     0.399960000000     0.460660000000     0          
O        O      0.450475000000     0.388305000000     0.450475000000     0          
Si       Si     0.031060000000     0.180950000000     0.075045000000     0          
Si       Si     0.031125000000     0.119010000000     0.075130000000     0          
Si       Si     0.031085000000     0.218915000000     0.125000000000     0          
O        O      0.035710000000     0.150000000000     0.083280000000     0          
O        O      0.039005000000     0.200255000000     0.099765000000     0          
O        O      0.000000000000     0.185600000000     0.067260000000     0          
O        O      0.035790000000     0.250000000000     0.117325000000     0          
O        O      0.000000000000     0.114215000000     0.067670000000     0          
O        O      0.049475000000     0.188325000000     0.049475000000     0          
O        O      0.039340000000     0.100040000000     0.100040000000     0          
O        O      0.049525000000     0.111695000000     0.049525000000     0          
Si       Si     0.319050000000     0.031060000000     0.075045000000     0          
Si       Si     0.380990000000     0.031125000000     0.075130000000     0          
Si       Si     0.281085000000     0.031085000000     0.125000000000     0          
O        O      0.350000000000     0.035710000000     0.083280000000     0          
O        O      0.299745000000     0.039005000000     0.099765000000     0          
O        O      0.314400000000     0.000000000000     0.067260000000     0          
O        O      0.250000000000     0.035790000000     0.117325000000     0          
O        O      0.385785000000     0.000000000000     0.067670000000     0          
O        O      0.311675000000     0.049475000000     0.049475000000     0          
O        O      0.399960000000     0.039340000000     0.100040000000     0          
O        O      0.388305000000     0.049525000000     0.049525000000     0          
Si       Si     0.468940000000     0.319050000000     0.075045000000     0          
Si       Si     0.468875000000     0.380990000000     0.075130000000     0          
Si       Si     0.468915000000     0.281085000000     0.125000000000     0          
O        O      0.464290000000     0.350000000000     0.083280000000     0          
O        O      0.460995000000     0.299745000000     0.099765000000     0          
O        O      0.000000000000     0.314400000000     0.067260000000     0          
O        O      0.464210000000     0.250000000000     0.117325000000     0          
O        O      0.000000000000     0.385785000000     0.067670000000     0          
O        O      0.450525000000     0.311675000000     0.049475000000     0          
O        O      0.460660000000     0.399960000000     0.100040000000     0          
O        O      0.450475000000     0.388305000000     0.049525000000     0          
Si       Si     0.180950000000     0.468940000000     0.075045000000     0          
Si       Si     0.119010000000     0.468875000000     0.075130000000     0          
Si       Si     0.218915000000     0.468915000000     0.125000000000     0          
O        O      0.150000000000     0.464290000000     0.083280000000     0          
O        O      0.200255000000     0.460995000000     0.099765000000     0          
O        O      0.185600000000     0.000000000000     0.067260000000     0          
O        O      0.250000000000     0.464210000000     0.117325000000     0          
O        O      0.114215000000     0.000000000000     0.067670000000     0          
O        O      0.188325000000     0.450525000000     0.049475000000     0          
O        O      0.100040000000     0.460660000000     0.100040000000     0          
O        O      0.111695000000     0.450475000000     0.049525000000     0          
Si       Si     0.031060000000     0.319050000000     0.424955000000     0          
Si       Si     0.031125000000     0.380990000000     0.424870000000     0          
Si       Si     0.031085000000     0.281085000000     0.375000000000     0          
O        O      0.035710000000     0.350000000000     0.416720000000     0          
O        O      0.039005000000     0.299745000000     0.400235000000     0          
O        O      0.000000000000     0.314400000000     0.432740000000     0          
O        O      0.035790000000     0.250000000000     0.382675000000     0          
O        O      0.000000000000     0.385785000000     0.432330000000     0          
O        O      0.049475000000     0.311675000000     0.450525000000     0          
O        O      0.039340000000     0.399960000000     0.399960000000     0          
O        O      0.049525000000     0.388305000000     0.450475000000     0          
Si       Si     0.180950000000     0.031060000000     0.424955000000     0          
Si       Si     0.119010000000     0.031125000000     0.424870000000     0          
Si       Si     0.218915000000     0.031085000000     0.375000000000     0          
O        O      0.150000000000     0.035710000000     0.416720000000     0          
O        O      0.200255000000     0.039005000000     0.400235000000     0          
O        O      0.185600000000     0.000000000000     0.432740000000     0          
O        O      0.250000000000     0.035790000000     0.382675000000     0          
O        O      0.114215000000     0.000000000000     0.432330000000     0          
O        O      0.188325000000     0.049475000000     0.450525000000     0          
O        O      0.100040000000     0.039340000000     0.399960000000     0          
O        O      0.111695000000     0.049525000000     0.450475000000     0          
Si       Si     0.468940000000     0.180950000000     0.424955000000     0          
Si       Si     0.468875000000     0.119010000000     0.424870000000     0          
Si       Si     0.468915000000     0.218915000000     0.375000000000     0          
O        O      0.464290000000     0.150000000000     0.416720000000     0          
O        O      0.460995000000     0.200255000000     0.400235000000     0          
O        O      0.000000000000     0.185600000000     0.432740000000     0          
O        O      0.464210000000     0.250000000000     0.382675000000     0          
O        O      0.000000000000     0.114215000000     0.432330000000     0          
O        O      0.450525000000     0.188325000000     0.450525000000     0          
O        O      0.460660000000     0.100040000000     0.399960000000     0          
O        O      0.450475000000     0.111695000000     0.450475000000     0          
Si       Si     0.319050000000     0.468940000000     0.424955000000     0          
Si       Si     0.380990000000     0.468875000000     0.424870000000     0          
Si       Si     0.281085000000     0.468915000000     0.375000000000     0          
O        O      0.350000000000     0.464290000000     0.416720000000     0          
O        O      0.299745000000     0.460995000000     0.400235000000     0          
O        O      0.314400000000     0.000000000000     0.432740000000     0          
O        O      0.250000000000     0.464210000000     0.382675000000     0          
O        O      0.385785000000     0.000000000000     0.432330000000     0          
O        O      0.311675000000     0.450525000000     0.450525000000     0          
O        O      0.399960000000     0.460660000000     0.399960000000     0          
O        O      0.388305000000     0.450475000000     0.450475000000     0          
Si       Si     0.075045000000     0.031060000000     0.180950000000     0          
Si       Si     0.075130000000     0.031125000000     0.119010000000     0          
Si       Si     0.125000000000     0.031085000000     0.218915000000     0          
O        O      0.083280000000     0.035710000000     0.150000000000     0          
O        O      0.099765000000     0.039005000000     0.200255000000     0          
O        O      0.067260000000     0.000000000000     0.185600000000     0          
O        O      0.117325000000     0.035790000000     0.250000000000     0          
O        O      0.067670000000     0.000000000000     0.114215000000     0          
O        O      0.049475000000     0.049475000000     0.188325000000     0          
O        O      0.100040000000     0.039340000000     0.100040000000     0          
O        O      0.049525000000     0.049525000000     0.111695000000     0          
Si       Si     0.075045000000     0.468940000000     0.319050000000     0          
Si       Si     0.075130000000     0.468875000000     0.380990000000     0          
Si       Si     0.125000000000     0.468915000000     0.281085000000     0          
O        O      0.083280000000     0.464290000000     0.350000000000     0          
O        O      0.099765000000     0.460995000000     0.299745000000     0          
O        O      0.067260000000     0.000000000000     0.314400000000     0          
O        O      0.117325000000     0.464210000000     0.250000000000     0          
O        O      0.067670000000     0.000000000000     0.385785000000     0          
O        O      0.049475000000     0.450525000000     0.311675000000     0          
O        O      0.100040000000     0.460660000000     0.399960000000     0          
O        O      0.049525000000     0.450475000000     0.388305000000     0          
Si       Si     0.031060000000     0.075045000000     0.319050000000     0          
Si       Si     0.031125000000     0.075130000000     0.380990000000     0          
Si       Si     0.031085000000     0.125000000000     0.281085000000     0          
O        O      0.035710000000     0.083280000000     0.350000000000     0          
O        O      0.039005000000     0.099765000000     0.299745000000     0          
O        O      0.000000000000     0.067260000000     0.314400000000     0          
O        O      0.035790000000     0.117325000000     0.250000000000     0          
O        O      0.000000000000     0.067670000000     0.385785000000     0          
O        O      0.049475000000     0.049475000000     0.311675000000     0          
O        O      0.039340000000     0.100040000000     0.399960000000     0          
O        O      0.049525000000     0.049525000000     0.388305000000     0          
Si       Si     0.424955000000     0.031060000000     0.319050000000     0          
Si       Si     0.424870000000     0.031125000000     0.380990000000     0          
Si       Si     0.375000000000     0.031085000000     0.281085000000     0          
O        O      0.416720000000     0.035710000000     0.350000000000     0          
O        O      0.400235000000     0.039005000000     0.299745000000     0          
O        O      0.432740000000     0.000000000000     0.314400000000     0          
O        O      0.382675000000     0.035790000000     0.250000000000     0          
O        O      0.432330000000     0.000000000000     0.385785000000     0          
O        O      0.450525000000     0.049475000000     0.311675000000     0          
O        O      0.399960000000     0.039340000000     0.399960000000     0          
O        O      0.450475000000     0.049525000000     0.388305000000     0          
Si       Si     0.468940000000     0.424955000000     0.319050000000     0          
Si       Si     0.468875000000     0.424870000000     0.380990000000     0          
Si       Si     0.468915000000     0.375000000000     0.281085000000     0          
O        O      0.464290000000     0.416720000000     0.350000000000     0          
O        O      0.460995000000     0.400235000000     0.299745000000     0          
O        O      0.000000000000     0.432740000000     0.314400000000     0          
O        O      0.464210000000     0.382675000000     0.250000000000     0          
O        O      0.000000000000     0.432330000000     0.385785000000     0          
O        O      0.450525000000     0.450525000000     0.311675000000     0          
O        O      0.460660000000     0.399960000000     0.399960000000     0          
O        O      0.450475000000     0.450475000000     0.388305000000     0          
Si       Si     0.424955000000     0.468940000000     0.180950000000     0          
Si       Si     0.424870000000     0.468875000000     0.119010000000     0          
Si       Si     0.375000000000     0.468915000000     0.218915000000     0          
O        O      0.416720000000     0.464290000000     0.150000000000     0          
O        O      0.400235000000     0.460995000000     0.200255000000     0          
O        O      0.432740000000     0.000000000000     0.185600000000     0          
O        O      0.382675000000     0.464210000000     0.250000000000     0          
O        O      0.432330000000     0.000000000000     0.114215000000     0          
O        O      0.450525000000     0.450525000000     0.188325000000     0          
O        O      0.399960000000     0.460660000000     0.100040000000     0          
O        O      0.450475000000     0.450475000000     0.111695000000     0          
Si       Si     0.031060000000     0.424955000000     0.180950000000     0          
Si       Si     0.031125000000     0.424870000000     0.119010000000     0          
Si       Si     0.031085000000     0.375000000000     0.218915000000     0          
O        O      0.035710000000     0.416720000000     0.150000000000     0          
O        O      0.039005000000     0.400235000000     0.200255000000     0          
O        O      0.000000000000     0.432740000000     0.185600000000     0          
O        O      0.035790000000     0.382675000000     0.250000000000     0          
O        O      0.000000000000     0.432330000000     0.114215000000     0          
O        O      0.049475000000     0.450525000000     0.188325000000     0          
O        O      0.039340000000     0.399960000000     0.100040000000     0          
O        O      0.049525000000     0.450475000000     0.111695000000     0          
Si       Si     0.468940000000     0.075045000000     0.180950000000     0          
Si       Si     0.468875000000     0.075130000000     0.119010000000     0          
Si       Si     0.468915000000     0.125000000000     0.218915000000     0          
O        O      0.464290000000     0.083280000000     0.150000000000     0          
O        O      0.460995000000     0.099765000000     0.200255000000     0          
O        O      0.000000000000     0.067260000000     0.185600000000     0          
O        O      0.464210000000     0.117325000000     0.250000000000     0          
O        O      0.000000000000     0.067670000000     0.114215000000     0          
O        O      0.450525000000     0.049475000000     0.188325000000     0          
O        O      0.460660000000     0.100040000000     0.100040000000     0          
O        O      0.450475000000     0.049525000000     0.111695000000     0          
Si       Si     0.319050000000     0.424955000000     0.468940000000     0          
Si       Si     0.380990000000     0.424870000000     0.468875000000     0          
Si       Si     0.281085000000     0.375000000000     0.468915000000     0          
O        O      0.350000000000     0.416720000000     0.464290000000     0          
O        O      0.299745000000     0.400235000000     0.460995000000     0          
Si       Si     0.075045000000     0.319050000000     0.468940000000     0          
Si       Si     0.075130000000     0.380990000000     0.468875000000     0          
Si       Si     0.125000000000     0.281085000000     0.468915000000     0          
O        O      0.083280000000     0.350000000000     0.464290000000     0          
O        O      0.099765000000     0.299745000000     0.460995000000     0          
Si       Si     0.180950000000     0.075045000000     0.468940000000     0          
Si       Si     0.119010000000     0.075130000000     0.468875000000     0          
Si       Si     0.218915000000     0.125000000000     0.468915000000     0          
O        O      0.150000000000     0.083280000000     0.464290000000     0          
O        O      0.200255000000     0.099765000000     0.460995000000     0          
Si       Si     0.424955000000     0.180950000000     0.468940000000     0          
Si       Si     0.424870000000     0.119010000000     0.468875000000     0          
Si       Si     0.375000000000     0.218915000000     0.468915000000     0          
O        O      0.416720000000     0.150000000000     0.464290000000     0          
O        O      0.400235000000     0.200255000000     0.460995000000     0          
Si       Si     0.319050000000     0.075045000000     0.031060000000     0          
Si       Si     0.380990000000     0.075130000000     0.031125000000     0          
Si       Si     0.281085000000     0.125000000000     0.031085000000     0          
O        O      0.350000000000     0.083280000000     0.035710000000     0          
O        O      0.299745000000     0.099765000000     0.039005000000     0          
Si       Si     0.424955000000     0.319050000000     0.031060000000     0          
Si       Si     0.424870000000     0.380990000000     0.031125000000     0          
Si       Si     0.375000000000     0.281085000000     0.031085000000     0          
O        O      0.416720000000     0.350000000000     0.035710000000     0          
O        O      0.400235000000     0.299745000000     0.039005000000     0          
Si       Si     0.180950000000     0.424955000000     0.031060000000     0          
Si       Si     0.119010000000     0.424870000000     0.031125000000     0          
Si       Si     0.218915000000     0.375000000000     0.031085000000     0          
O        O      0.150000000000     0.416720000000     0.035710000000     0          
O        O      0.200255000000     0.400235000000     0.039005000000     0          
Si       Si     0.075045000000     0.180950000000     0.031060000000     0          
Si       Si     0.075130000000     0.119010000000     0.031125000000     0          
Si       Si     0.125000000000     0.218915000000     0.031085000000     0          
O        O      0.083280000000     0.150000000000     0.035710000000     0          
O        O      0.099765000000     0.200255000000     0.039005000000     0          
Si       Si     0.468940000000     0.319050000000     0.424955000000     0          
Si       Si     0.468875000000     0.380990000000     0.424870000000     0          
Si       Si     0.468915000000     0.281085000000     0.375000000000     0          
O        O      0.464290000000     0.350000000000     0.416720000000     0          
O        O      0.460995000000     0.299745000000     0.400235000000     0          
Si       Si     0.180950000000     0.468940000000     0.424955000000     0          
Si       Si     0.119010000000     0.468875000000     0.424870000000     0          
Si       Si     0.218915000000     0.468915000000     0.375000000000     0          
O        O      0.150000000000     0.464290000000     0.416720000000     0          
O        O      0.200255000000     0.460995000000     0.400235000000     0          
Si       Si     0.031060000000     0.180950000000     0.424955000000     0          
Si       Si     0.031125000000     0.119010000000     0.424870000000     0          
Si       Si     0.031085000000     0.218915000000     0.375000000000     0          
O        O      0.035710000000     0.150000000000     0.416720000000     0          
O        O      0.039005000000     0.200255000000     0.400235000000     0          
Si       Si     0.319050000000     0.031060000000     0.424955000000     0          
Si       Si     0.380990000000     0.031125000000     0.424870000000     0          
Si       Si     0.281085000000     0.031085000000     0.375000000000     0          
O        O      0.350000000000     0.035710000000     0.416720000000     0          
O        O      0.299745000000     0.039005000000     0.400235000000     0          
Si       Si     0.468940000000     0.180950000000     0.075045000000     0          
Si       Si     0.468875000000     0.119010000000     0.075130000000     0          
Si       Si     0.468915000000     0.218915000000     0.125000000000     0          
O        O      0.464290000000     0.150000000000     0.083280000000     0          
O        O      0.460995000000     0.200255000000     0.099765000000     0          
Si       Si     0.319050000000     0.468940000000     0.075045000000     0          
Si       Si     0.380990000000     0.468875000000     0.075130000000     0          
Si       Si     0.281085000000     0.468915000000     0.125000000000     0          
O        O      0.350000000000     0.464290000000     0.083280000000     0          
O        O      0.299745000000     0.460995000000     0.099765000000     0          
Si       Si     0.031060000000     0.319050000000     0.075045000000     0          
Si       Si     0.031125000000     0.380990000000     0.075130000000     0          
Si       Si     0.031085000000     0.281085000000     0.125000000000     0          
O        O      0.035710000000     0.350000000000     0.083280000000     0          
O        O      0.039005000000     0.299745000000     0.099765000000     0          
Si       Si     0.180950000000     0.031060000000     0.075045000000     0          
Si       Si     0.119010000000     0.031125000000     0.075130000000     0          
Si       Si     0.218915000000     0.031085000000     0.125000000000     0          
O        O      0.150000000000     0.035710000000     0.083280000000     0          
O        O      0.200255000000     0.039005000000     0.099765000000     0          
Si       Si     0.424955000000     0.468940000000     0.319050000000     0          
Si       Si     0.424870000000     0.468875000000     0.380990000000     0          
Si       Si     0.375000000000     0.468915000000     0.281085000000     0          
O        O      0.416720000000     0.464290000000     0.350000000000     0          
O        O      0.400235000000     0.460995000000     0.299745000000     0          
Si       Si     0.424955000000     0.031060000000     0.180950000000     0          
Si       Si     0.424870000000     0.031125000000     0.119010000000     0          
Si       Si     0.375000000000     0.031085000000     0.218915000000     0          
O        O      0.416720000000     0.035710000000     0.150000000000     0          
O        O      0.400235000000     0.039005000000     0.200255000000     0          
Si       Si     0.468940000000     0.424955000000     0.180950000000     0          
Si       Si     0.468875000000     0.424870000000     0.119010000000     0          
Si       Si     0.468915000000     0.375000000000     0.218915000000     0          
O        O      0.464290000000     0.416720000000     0.150000000000     0          
O        O      0.460995000000     0.400235000000     0.200255000000     0          
Si       Si     0.075045000000     0.468940000000     0.180950000000     0          
Si       Si     0.075130000000     0.468875000000     0.119010000000     0          
Si       Si     0.125000000000     0.468915000000     0.218915000000     0          
O        O      0.083280000000     0.464290000000     0.150000000000     0          
O        O      0.099765000000     0.460995000000     0.200255000000     0          
Si       Si     0.031060000000     0.075045000000     0.180950000000     0          
Si       Si     0.031125000000     0.075130000000     0.119010000000     0          
Si       Si     0.031085000000     0.125000000000     0.218915000000     0          
O        O      0.035710000000     0.083280000000     0.150000000000     0          
O        O      0.039005000000     0.099765000000     0.200255000000     0          
Si       Si     0.075045000000     0.031060000000     0.319050000000     0          
Si       Si     0.075130000000     0.031125000000     0.380990000000     0          
Si       Si     0.125000000000     0.031085000000     0.281085000000     0          
O        O      0.083280000000     0.035710000000     0.350000000000     0          
O        O      0.099765000000     0.039005000000     0.299745000000     0          
Si       Si     0.468940000000     0.075045000000     0.319050000000     0          
Si       Si     0.468875000000     0.075130000000     0.380990000000     0          
Si       Si     0.468915000000     0.125000000000     0.281085000000     0          
O        O      0.464290000000     0.083280000000     0.350000000000     0          
O        O      0.460995000000     0.099765000000     0.299745000000     0          
Si       Si     0.031060000000     0.424955000000     0.319050000000     0          
Si       Si     0.031125000000     0.424870000000     0.380990000000     0          
Si       Si     0.031085000000     0.375000000000     0.281085000000     0          
O        O      0.035710000000     0.416720000000     0.350000000000     0          
O        O      0.039005000000     0.400235000000     0.299745000000     0          
Si       Si     0.430950000000     0.325045000000     0.281060000000     0          
Si       Si     0.369010000000     0.325130000000     0.281125000000     0          
O        O      0.400000000000     0.333280000000     0.285710000000     0          
O        O      0.450255000000     0.349765000000     0.289005000000     0          
O        O      0.435600000000     0.317260000000     0.250000000000     0          
O        O      0.000000000000     0.367325000000     0.285790000000     0          
O        O      0.364215000000     0.317670000000     0.250000000000     0          
O        O      0.438325000000     0.299475000000     0.299475000000     0          
O        O      0.350040000000     0.350040000000     0.289340000000     0          
O        O      0.361695000000     0.299525000000     0.299525000000     0          
Si       Si     0.174955000000     0.430950000000     0.281060000000     0          
Si       Si     0.174870000000     0.369010000000     0.281125000000     0          
O        O      0.166720000000     0.400000000000     0.285710000000     0          
O        O      0.150235000000     0.450255000000     0.289005000000     0          
O        O      0.182740000000     0.435600000000     0.250000000000     0          
O        O      0.132675000000     0.000000000000     0.285790000000     0          
O        O      0.182330000000     0.364215000000     0.250000000000     0          
O        O      0.200525000000     0.438325000000     0.299475000000     0          
O        O      0.149960000000     0.350040000000     0.289340000000     0          
O        O      0.200475000000     0.361695000000     0.299525000000     0          
Si       Si     0.069050000000     0.174955000000     0.281060000000     0          
Si       Si     0.130990000000     0.174870000000     0.281125000000     0          
O        O      0.100000000000     0.166720000000     0.285710000000     0          
O        O      0.049745000000     0.150235000000     0.289005000000     0          
O        O      0.064400000000     0.182740000000     0.250000000000     0          
O        O      0.000000000000     0.132675000000     0.285790000000     0          
O        O      0.135785000000     0.182330000000     0.250000000000     0          
O        O      0.061675000000     0.200525000000     0.299475000000     0          
O        O      0.149960000000     0.149960000000     0.289340000000     0          
O        O      0.138305000000     0.200475000000     0.299525000000     0          
Si       Si     0.325045000000     0.069050000000     0.281060000000     0          
Si       Si     0.325130000000     0.130990000000     0.281125000000     0          
O        O      0.333280000000     0.100000000000     0.285710000000     0          
O        O      0.349765000000     0.049745000000     0.289005000000     0          
O        O      0.317260000000     0.064400000000     0.250000000000     0          
O        O      0.367325000000     0.000000000000     0.285790000000     0          
O        O      0.317670000000     0.135785000000     0.250000000000     0          
O        O      0.299475000000     0.061675000000     0.299475000000     0          
O        O      0.350040000000     0.149960000000     0.289340000000     0          
O        O      0.299525000000     0.138305000000     0.299525000000     0          
Si       Si     0.430950000000     0.174955000000     0.218940000000     0          
Si       Si     0.369010000000     0.174870000000     0.218875000000     0          
O        O      0.400000000000     0.166720000000     0.214290000000     0          
O        O      0.450255000000     0.150235000000     0.210995000000     0          
O        O      0.435600000000     0.182740000000     0.250000000000     0          
O        O      0.000000000000     0.132675000000     0.214210000000     0          
O        O      0.364215000000     0.182330000000     0.250000000000     0          
O        O      0.438325000000     0.200525000000     0.200525000000     0          
O        O      0.350040000000     0.149960000000     0.210660000000     0          
O        O      0.361695000000     0.200475000000     0.200475000000     0          
Si       Si     0.325045000000     0.430950000000     0.218940000000     0          
Si       Si     0.325130000000     0.369010000000     0.218875000000     0          
O        O      0.333280000000     0.400000000000     0.214290000000     0          
O        O      0.349765000000     0.450255000000     0.210995000000     0          
O        O      0.317260000000     0.435600000000     0.250000000000     0          
O        O      0.367325000000     0.000000000000     0.214210000000     0          
O        O      0.317670000000     0.364215000000     0.250000000000     0          
O        O      0.299475000000     0.438325000000     0.200525000000     0          
O        O      0.350040000000     0.350040000000     0.210660000000     0          
O        O      0.299525000000     0.361695000000     0.200475000000     0          
Si       Si     0.069050000000     0.325045000000     0.218940000000     0          
Si       Si     0.130990000000     0.325130000000     0.218875000000     0          
O        O      0.100000000000     0.333280000000     0.214290000000     0          
O        O      0.049745000000     0.349765000000     0.210995000000     0          
O        O      0.064400000000     0.317260000000     0.250000000000     0          
O        O      0.000000000000     0.367325000000     0.214210000000     0          
O        O      0.135785000000     0.317670000000     0.250000000000     0          
O        O      0.061675000000     0.299475000000     0.200525000000     0          
O        O      0.149960000000     0.350040000000     0.210660000000     0          
O        O      0.138305000000     0.299525000000     0.200475000000     0          
Si       Si     0.174955000000     0.069050000000     0.218940000000     0          
Si       Si     0.174870000000     0.130990000000     0.218875000000     0          
O        O      0.166720000000     0.100000000000     0.214290000000     0          
O        O      0.150235000000     0.049745000000     0.210995000000     0          
O        O      0.182740000000     0.064400000000     0.250000000000     0          
O        O      0.132675000000     0.000000000000     0.214210000000     0          
O        O      0.182330000000     0.135785000000     0.250000000000     0          
O        O      0.200525000000     0.061675000000     0.200525000000     0          
O        O      0.149960000000     0.149960000000     0.210660000000     0          
O        O      0.200475000000     0.138305000000     0.200475000000     0          
Si       Si     0.281060000000     0.430950000000     0.325045000000     0          
Si       Si     0.281125000000     0.369010000000     0.325130000000     0          
O        O      0.285710000000     0.400000000000     0.333280000000     0          
O        O      0.289005000000     0.450255000000     0.349765000000     0          
O        O      0.250000000000     0.435600000000     0.317260000000     0          
O        O      0.285790000000     0.000000000000     0.367325000000     0          
O        O      0.250000000000     0.364215000000     0.317670000000     0          
O        O      0.299475000000     0.438325000000     0.299475000000     0          
O        O      0.289340000000     0.350040000000     0.350040000000     0          
O        O      0.299525000000     0.361695000000     0.299525000000     0          
Si       Si     0.069050000000     0.281060000000     0.325045000000     0          
Si       Si     0.130990000000     0.281125000000     0.325130000000     0          
O        O      0.100000000000     0.285710000000     0.333280000000     0          
O        O      0.049745000000     0.289005000000     0.349765000000     0          
O        O      0.064400000000     0.250000000000     0.317260000000     0          
O        O      0.000000000000     0.285790000000     0.367325000000     0          
O        O      0.135785000000     0.250000000000     0.317670000000     0          
O        O      0.061675000000     0.299475000000     0.299475000000     0          
O        O      0.149960000000     0.289340000000     0.350040000000     0          
O        O      0.138305000000     0.299525000000     0.299525000000     0          
Si       Si     0.218940000000     0.069050000000     0.325045000000     0          
Si       Si     0.218875000000     0.130990000000     0.325130000000     0          
O        O      0.214290000000     0.100000000000     0.333280000000     0          
O        O      0.210995000000     0.049745000000     0.349765000000     0          
O        O      0.250000000000     0.064400000000     0.317260000000     0          
O        O      0.214210000000     0.000000000000     0.367325000000     0          
O        O      0.250000000000     0.135785000000     0.317670000000     0          
O        O      0.200525000000     0.061675000000     0.299475000000     0          
O        O      0.210660000000     0.149960000000     0.350040000000     0          
O        O      0.200475000000     0.138305000000     0.299525000000     0          
Si       Si     0.430950000000     0.218940000000     0.325045000000     0          
Si       Si     0.369010000000     0.218875000000     0.325130000000     0          
O        O      0.400000000000     0.214290000000     0.333280000000     0          
O        O      0.450255000000     0.210995000000     0.349765000000     0          
O        O      0.435600000000     0.250000000000     0.317260000000     0          
O        O      0.000000000000     0.214210000000     0.367325000000     0          
O        O      0.364215000000     0.250000000000     0.317670000000     0          
O        O      0.438325000000     0.200525000000     0.299475000000     0          
O        O      0.350040000000     0.210660000000     0.350040000000     0          
O        O      0.361695000000     0.200475000000     0.299525000000     0          
Si       Si     0.281060000000     0.069050000000     0.174955000000     0          
Si       Si     0.281125000000     0.130990000000     0.174870000000     0          
O        O      0.285710000000     0.100000000000     0.166720000000     0          
O        O      0.289005000000     0.049745000000     0.150235000000     0          
O        O      0.250000000000     0.064400000000     0.182740000000     0          
O        O      0.285790000000     0.000000000000     0.132675000000     0          
O        O      0.250000000000     0.135785000000     0.182330000000     0          
O        O      0.299475000000     0.061675000000     0.200525000000     0          
O        O      0.289340000000     0.149960000000     0.149960000000     0          
O        O      0.299525000000     0.138305000000     0.200475000000     0          
Si       Si     0.430950000000     0.281060000000     0.174955000000     0          
Si       Si     0.369010000000     0.281125000000     0.174870000000     0          
O        O      0.400000000000     0.285710000000     0.166720000000     0          
O        O      0.450255000000     0.289005000000     0.150235000000     0          
O        O      0.435600000000     0.250000000000     0.182740000000     0          
O        O      0.000000000000     0.285790000000     0.132675000000     0          
O        O      0.364215000000     0.250000000000     0.182330000000     0          
O        O      0.438325000000     0.299475000000     0.200525000000     0          
O        O      0.350040000000     0.289340000000     0.149960000000     0          
O        O      0.361695000000     0.299525000000     0.200475000000     0          
Si       Si     0.218940000000     0.430950000000     0.174955000000     0          
Si       Si     0.218875000000     0.369010000000     0.174870000000     0          
O        O      0.214290000000     0.400000000000     0.166720000000     0          
O        O      0.210995000000     0.450255000000     0.150235000000     0          
O        O      0.250000000000     0.435600000000     0.182740000000     0          
O        O      0.214210000000     0.000000000000     0.132675000000     0          
O        O      0.250000000000     0.364215000000     0.182330000000     0          
O        O      0.200525000000     0.438325000000     0.200525000000     0          
O        O      0.210660000000     0.350040000000     0.149960000000     0          
O        O      0.200475000000     0.361695000000     0.200475000000     0          
Si       Si     0.069050000000     0.218940000000     0.174955000000     0          
Si       Si     0.130990000000     0.218875000000     0.174870000000     0          
O        O      0.100000000000     0.214290000000     0.166720000000     0          
O        O      0.049745000000     0.210995000000     0.150235000000     0          
O        O      0.064400000000     0.250000000000     0.182740000000     0          
O        O      0.000000000000     0.214210000000     0.132675000000     0          
O        O      0.135785000000     0.250000000000     0.182330000000     0          
O        O      0.061675000000     0.200525000000     0.200525000000     0          
O        O      0.149960000000     0.210660000000     0.149960000000     0          
O        O      0.138305000000     0.200475000000     0.200475000000     0          
Si       Si     0.325045000000     0.281060000000     0.430950000000     0          
Si       Si     0.325130000000     0.281125000000     0.369010000000     0          
O        O      0.333280000000     0.285710000000     0.400000000000     0          
O        O      0.349765000000     0.289005000000     0.450255000000     0          
O        O      0.317260000000     0.250000000000     0.435600000000     0          
O        O      0.367325000000     0.285790000000     0.000000000000     0          
O        O      0.317670000000     0.250000000000     0.364215000000     0          
O        O      0.299475000000     0.299475000000     0.438325000000     0          
O        O      0.350040000000     0.289340000000     0.350040000000     0          
O        O      0.299525000000     0.299525000000     0.361695000000     0          
Si       Si     0.325045000000     0.218940000000     0.069050000000     0          
Si       Si     0.325130000000     0.218875000000     0.130990000000     0          
O        O      0.333280000000     0.214290000000     0.100000000000     0          
O        O      0.349765000000     0.210995000000     0.049745000000     0          
O        O      0.317260000000     0.250000000000     0.064400000000     0          
O        O      0.367325000000     0.214210000000     0.000000000000     0          
O        O      0.317670000000     0.250000000000     0.135785000000     0          
O        O      0.299475000000     0.200525000000     0.061675000000     0          
O        O      0.350040000000     0.210660000000     0.149960000000     0          
O        O      0.299525000000     0.200475000000     0.138305000000     0          
Si       Si     0.281060000000     0.325045000000     0.069050000000     0          
Si       Si     0.281125000000     0.325130000000     0.130990000000     0          
O        O      0.285710000000     0.333280000000     0.100000000000     0          
O        O      0.289005000000     0.349765000000     0.049745000000     0          
O        O      0.250000000000     0.317260000000     0.064400000000     0          
O        O      0.285790000000     0.367325000000     0.000000000000     0          
O        O      0.250000000000     0.317670000000     0.135785000000     0          
O        O      0.299475000000     0.299475000000     0.061675000000     0          
O        O      0.289340000000     0.350040000000     0.149960000000     0          
O        O      0.299525000000     0.299525000000     0.138305000000     0          
Si       Si     0.174955000000     0.281060000000     0.069050000000     0          
Si       Si     0.174870000000     0.281125000000     0.130990000000     0          
O        O      0.166720000000     0.285710000000     0.100000000000     0          
O        O      0.150235000000     0.289005000000     0.049745000000     0          
O        O      0.182740000000     0.250000000000     0.064400000000     0          
O        O      0.132675000000     0.285790000000     0.000000000000     0          
O        O      0.182330000000     0.250000000000     0.135785000000     0          
O        O      0.200525000000     0.299475000000     0.061675000000     0          
O        O      0.149960000000     0.289340000000     0.149960000000     0          
O        O      0.200475000000     0.299525000000     0.138305000000     0          
Si       Si     0.218940000000     0.174955000000     0.069050000000     0          
Si       Si     0.218875000000     0.174870000000     0.130990000000     0          
O        O      0.214290000000     0.166720000000     0.100000000000     0          
O        O      0.210995000000     0.150235000000     0.049745000000     0          
O        O      0.250000000000     0.182740000000     0.064400000000     0          
O        O      0.214210000000     0.132675000000     0.000000000000     0          
O        O      0.250000000000     0.182330000000     0.135785000000     0          
O        O      0.200525000000     0.200525000000     0.061675000000     0          
O        O      0.210660000000     0.149960000000     0.149960000000     0          
O        O      0.200475000000     0.200475000000     0.138305000000     0          
Si       Si     0.174955000000     0.218940000000     0.430950000000     0          
Si       Si     0.174870000000     0.218875000000     0.369010000000     0          
O        O      0.166720000000     0.214290000000     0.400000000000     0          
O        O      0.150235000000     0.210995000000     0.450255000000     0          
O        O      0.182740000000     0.250000000000     0.435600000000     0          
O        O      0.132675000000     0.214210000000     0.000000000000     0          
O        O      0.182330000000     0.250000000000     0.364215000000     0          
O        O      0.200525000000     0.200525000000     0.438325000000     0          
O        O      0.149960000000     0.210660000000     0.350040000000     0          
O        O      0.200475000000     0.200475000000     0.361695000000     0          
Si       Si     0.281060000000     0.174955000000     0.430950000000     0          
Si       Si     0.281125000000     0.174870000000     0.369010000000     0          
O        O      0.285710000000     0.166720000000     0.400000000000     0          
O        O      0.289005000000     0.150235000000     0.450255000000     0          
O        O      0.250000000000     0.182740000000     0.435600000000     0          
O        O      0.285790000000     0.132675000000     0.000000000000     0          
O        O      0.250000000000     0.182330000000     0.364215000000     0          
O        O      0.299475000000     0.200525000000     0.438325000000     0          
O        O      0.289340000000     0.149960000000     0.350040000000     0          
O        O      0.299525000000     0.200475000000     0.361695000000     0          
Si       Si     0.218940000000     0.325045000000     0.430950000000     0          
Si       Si     0.218875000000     0.325130000000     0.369010000000     0          
O        O      0.214290000000     0.333280000000     0.400000000000     0          
O        O      0.210995000000     0.349765000000     0.450255000000     0          
O        O      0.250000000000     0.317260000000     0.435600000000     0          
O        O      0.214210000000     0.367325000000     0.000000000000     0          
O        O      0.250000000000     0.317670000000     0.364215000000     0          
O        O      0.200525000000     0.299475000000     0.438325000000     0          
O        O      0.210660000000     0.350040000000     0.350040000000     0          
O        O      0.200475000000     0.299525000000     0.361695000000     0          
Si       Si     0.069050000000     0.174955000000     0.218940000000     0          
Si       Si     0.130990000000     0.174870000000     0.218875000000     0          
O        O      0.100000000000     0.166720000000     0.214290000000     0          
O        O      0.049745000000     0.150235000000     0.210995000000     0          
Si       Si     0.325045000000     0.069050000000     0.218940000000     0          
Si       Si     0.325130000000     0.130990000000     0.218875000000     0          
O        O      0.333280000000     0.100000000000     0.214290000000     0          
O        O      0.349765000000     0.049745000000     0.210995000000     0          
Si       Si     0.430950000000     0.325045000000     0.218940000000     0          
Si       Si     0.369010000000     0.325130000000     0.218875000000     0          
O        O      0.400000000000     0.333280000000     0.214290000000     0          
O        O      0.450255000000     0.349765000000     0.210995000000     0          
Si       Si     0.174955000000     0.430950000000     0.218940000000     0          
Si       Si     0.174870000000     0.369010000000     0.218875000000     0          
O        O      0.166720000000     0.400000000000     0.214290000000     0          
O        O      0.150235000000     0.450255000000     0.210995000000     0          
Si       Si     0.069050000000     0.325045000000     0.281060000000     0          
Si       Si     0.130990000000     0.325130000000     0.281125000000     0          
O        O      0.100000000000     0.333280000000     0.285710000000     0          
O        O      0.049745000000     0.349765000000     0.289005000000     0          
Si       Si     0.174955000000     0.069050000000     0.281060000000     0          
Si       Si     0.174870000000     0.130990000000     0.281125000000     0          
O        O      0.166720000000     0.100000000000     0.285710000000     0          
O        O      0.150235000000     0.049745000000     0.289005000000     0          
Si       Si     0.430950000000     0.174955000000     0.281060000000     0          
Si       Si     0.369010000000     0.174870000000     0.281125000000     0          
O        O      0.400000000000     0.166720000000     0.285710000000     0          
O        O      0.450255000000     0.150235000000     0.289005000000     0          
Si       Si     0.325045000000     0.430950000000     0.281060000000     0          
Si       Si     0.325130000000     0.369010000000     0.281125000000     0          
O        O      0.333280000000     0.400000000000     0.285710000000     0          
O        O      0.349765000000     0.450255000000     0.289005000000     0          
Si       Si     0.218940000000     0.069050000000     0.174955000000     0          
Si       Si     0.218875000000     0.130990000000     0.174870000000     0          
O        O      0.214290000000     0.100000000000     0.166720000000     0          
O        O      0.210995000000     0.049745000000     0.150235000000     0          
Si       Si     0.430950000000     0.218940000000     0.174955000000     0          
Si       Si     0.369010000000     0.218875000000     0.174870000000     0          
O        O      0.400000000000     0.214290000000     0.166720000000     0          
O        O      0.450255000000     0.210995000000     0.150235000000     0          
Si       Si     0.281060000000     0.430950000000     0.174955000000     0          
Si       Si     0.281125000000     0.369010000000     0.174870000000     0          
O        O      0.285710000000     0.400000000000     0.166720000000     0          
O        O      0.289005000000     0.450255000000     0.150235000000     0          
Si       Si     0.069050000000     0.281060000000     0.174955000000     0          
Si       Si     0.130990000000     0.281125000000     0.174870000000     0          
O        O      0.100000000000     0.285710000000     0.166720000000     0          
O        O      0.049745000000     0.289005000000     0.150235000000     0          
Si       Si     0.218940000000     0.430950000000     0.325045000000     0          
Si       Si     0.218875000000     0.369010000000     0.325130000000     0          
O        O      0.214290000000     0.400000000000     0.333280000000     0          
O        O      0.210995000000     0.450255000000     0.349765000000     0          
Si       Si     0.069050000000     0.218940000000     0.325045000000     0          
Si       Si     0.130990000000     0.218875000000     0.325130000000     0          
O        O      0.100000000000     0.214290000000     0.333280000000     0          
O        O      0.049745000000     0.210995000000     0.349765000000     0          
Si       Si     0.281060000000     0.069050000000     0.325045000000     0          
Si       Si     0.281125000000     0.130990000000     0.325130000000     0          
O        O      0.285710000000     0.100000000000     0.333280000000     0          
O        O      0.289005000000     0.049745000000     0.349765000000     0          
Si       Si     0.430950000000     0.281060000000     0.325045000000     0          
Si       Si     0.369010000000     0.281125000000     0.325130000000     0          
O        O      0.400000000000     0.285710000000     0.333280000000     0          
O        O      0.450255000000     0.289005000000     0.349765000000     0          
Si       Si     0.174955000000     0.218940000000     0.069050000000     0          
Si       Si     0.174870000000     0.218875000000     0.130990000000     0          
O        O      0.166720000000     0.214290000000     0.100000000000     0          
O        O      0.150235000000     0.210995000000     0.049745000000     0          
Si       Si     0.174955000000     0.281060000000     0.430950000000     0          
Si       Si     0.174870000000     0.281125000000     0.369010000000     0          
O        O      0.166720000000     0.285710000000     0.400000000000     0          
O        O      0.150235000000     0.289005000000     0.450255000000     0          
Si       Si     0.218940000000     0.174955000000     0.430950000000     0          
Si       Si     0.218875000000     0.174870000000     0.369010000000     0          
O        O      0.214290000000     0.166720000000     0.400000000000     0          
O        O      0.210995000000     0.150235000000     0.450255000000     0          
Si       Si     0.325045000000     0.218940000000     0.430950000000     0          
Si       Si     0.325130000000     0.218875000000     0.369010000000     0          
O        O      0.333280000000     0.214290000000     0.400000000000     0          
O        O      0.349765000000     0.210995000000     0.450255000000     0          
Si       Si     0.281060000000     0.325045000000     0.430950000000     0          
Si       Si     0.281125000000     0.325130000000     0.369010000000     0          
O        O      0.285710000000     0.333280000000     0.400000000000     0          
O        O      0.289005000000     0.349765000000     0.450255000000     0          
Si       Si     0.325045000000     0.281060000000     0.069050000000     0          
Si       Si     0.325130000000     0.281125000000     0.130990000000     0          
O        O      0.333280000000     0.285710000000     0.100000000000     0          
O        O      0.349765000000     0.289005000000     0.049745000000     0          
Si       Si     0.218940000000     0.325045000000     0.069050000000     0          
Si       Si     0.218875000000     0.325130000000     0.130990000000     0          
O        O      0.214290000000     0.333280000000     0.100000000000     0          
O        O      0.210995000000     0.349765000000     0.049745000000     0          
Si       Si     0.281060000000     0.174955000000     0.069050000000     0          
Si       Si     0.281125000000     0.174870000000     0.130990000000     0          
O        O      0.285710000000     0.166720000000     0.100000000000     0          
O        O      0.289005000000     0.150235000000     0.049745000000     0          
Si       Si     0.180950000000     0.075045000000     0.531060000000     0          
Si       Si     0.119010000000     0.075130000000     0.531125000000     0          
Si       Si     0.218915000000     0.125000000000     0.531085000000     0          
O        O      0.150000000000     0.083280000000     0.535710000000     0          
O        O      0.200255000000     0.099765000000     0.539005000000     0          
O        O      0.185600000000     0.067260000000     0.500000000000     0          
O        O      0.250000000000     0.117325000000     0.535790000000     0          
O        O      0.114215000000     0.067670000000     0.500000000000     0          
O        O      0.188325000000     0.049475000000     0.549475000000     0          
O        O      0.100040000000     0.100040000000     0.539340000000     0          
O        O      0.111695000000     0.049525000000     0.549525000000     0          
Si       Si     0.424955000000     0.180950000000     0.531060000000     0          
Si       Si     0.424870000000     0.119010000000     0.531125000000     0          
Si       Si     0.375000000000     0.218915000000     0.531085000000     0          
O        O      0.416720000000     0.150000000000     0.535710000000     0          
O        O      0.400235000000     0.200255000000     0.539005000000     0          
O        O      0.432740000000     0.185600000000     0.500000000000     0          
O        O      0.382675000000     0.250000000000     0.535790000000     0          
O        O      0.432330000000     0.114215000000     0.500000000000     0          
O        O      0.450525000000     0.188325000000     0.549475000000     0          
O        O      0.399960000000     0.100040000000     0.539340000000     0          
O        O      0.450475000000     0.111695000000     0.549525000000     0          
Si       Si     0.319050000000     0.424955000000     0.531060000000     0          
Si       Si     0.380990000000     0.424870000000     0.531125000000     0          
Si       Si     0.281085000000     0.375000000000     0.531085000000     0          
O        O      0.350000000000     0.416720000000     0.535710000000     0          
O        O      0.299745000000     0.400235000000     0.539005000000     0          
O        O      0.314400000000     0.432740000000     0.500000000000     0          
O        O      0.250000000000     0.382675000000     0.535790000000     0          
O        O      0.385785000000     0.432330000000     0.500000000000     0          
O        O      0.311675000000     0.450525000000     0.549475000000     0          
O        O      0.399960000000     0.399960000000     0.539340000000     0          
O        O      0.388305000000     0.450475000000     0.549525000000     0          
Si       Si     0.075045000000     0.319050000000     0.531060000000     0          
Si       Si     0.075130000000     0.380990000000     0.531125000000     0          
Si       Si     0.125000000000     0.281085000000     0.531085000000     0          
O        O      0.083280000000     0.350000000000     0.535710000000     0          
O        O      0.099765000000     0.299745000000     0.539005000000     0          
O        O      0.067260000000     0.314400000000     0.500000000000     0          
O        O      0.117325000000     0.250000000000     0.535790000000     0          
O        O      0.067670000000     0.385785000000     0.500000000000     0          
O        O      0.049475000000     0.311675000000     0.549475000000     0          
O        O      0.100040000000     0.399960000000     0.539340000000     0          
O        O      0.049525000000     0.388305000000     0.549525000000     0          
Si       Si     0.180950000000     0.424955000000     0.968940000000     0          
Si       Si     0.119010000000     0.424870000000     0.968875000000     0          
Si       Si     0.218915000000     0.375000000000     0.968915000000     0          
O        O      0.150000000000     0.416720000000     0.964290000000     0          
O        O      0.200255000000     0.400235000000     0.960995000000     0          
O        O      0.185600000000     0.432740000000     0.500000000000     0          
O        O      0.250000000000     0.382675000000     0.964210000000     0          
O        O      0.114215000000     0.432330000000     0.500000000000     0          
O        O      0.188325000000     0.450525000000     0.950525000000     0          
O        O      0.100040000000     0.399960000000     0.960660000000     0          
O        O      0.111695000000     0.450475000000     0.950475000000     0          
Si       Si     0.075045000000     0.180950000000     0.968940000000     0          
Si       Si     0.075130000000     0.119010000000     0.968875000000     0          
Si       Si     0.125000000000     0.218915000000     0.968915000000     0          
O        O      0.083280000000     0.150000000000     0.964290000000     0          
O        O      0.099765000000     0.200255000000     0.960995000000     0          
O        O      0.067260000000     0.185600000000     0.500000000000     0          
O        O      0.117325000000     0.250000000000     0.964210000000     0          
O        O      0.067670000000     0.114215000000     0.500000000000     0          
O        O      0.049475000000     0.188325000000     0.950525000000     0          
O        O      0.100040000000     0.100040000000     0.960660000000     0          
O        O      0.049525000000     0.111695000000     0.950475000000     0          
Si       Si     0.319050000000     0.075045000000     0.968940000000     0          
Si       Si     0.380990000000     0.075130000000     0.968875000000     0          
Si       Si     0.281085000000     0.125000000000     0.968915000000     0          
O        O      0.350000000000     0.083280000000     0.964290000000     0          
O        O      0.299745000000     0.099765000000     0.960995000000     0          
O        O      0.314400000000     0.067260000000     0.500000000000     0          
O        O      0.250000000000     0.117325000000     0.964210000000     0          
O        O      0.385785000000     0.067670000000     0.500000000000     0          
O        O      0.311675000000     0.049475000000     0.950525000000     0          
O        O      0.399960000000     0.100040000000     0.960660000000     0          
O        O      0.388305000000     0.049525000000     0.950475000000     0          
Si       Si     0.424955000000     0.319050000000     0.968940000000     0          
Si       Si     0.424870000000     0.380990000000     0.968875000000     0          
Si       Si     0.375000000000     0.281085000000     0.968915000000     0          
O        O      0.416720000000     0.350000000000     0.964290000000     0          
O        O      0.400235000000     0.299745000000     0.960995000000     0          
O        O      0.432740000000     0.314400000000     0.500000000000     0          
O        O      0.382675000000     0.250000000000     0.964210000000     0          
O        O      0.432330000000     0.385785000000     0.500000000000     0          
O        O      0.450525000000     0.311675000000     0.950525000000     0          
O        O      0.399960000000     0.399960000000     0.960660000000     0          
O        O      0.450475000000     0.388305000000     0.950475000000     0          
Si       Si     0.031060000000     0.180950000000     0.575045000000     0          
Si       Si     0.031125000000     0.119010000000     0.575130000000     0          
Si       Si     0.031085000000     0.218915000000     0.625000000000     0          
O        O      0.035710000000     0.150000000000     0.583280000000     0          
O        O      0.039005000000     0.200255000000     0.599765000000     0          
O        O      0.000000000000     0.185600000000     0.567260000000     0          
O        O      0.035790000000     0.250000000000     0.617325000000     0          
O        O      0.000000000000     0.114215000000     0.567670000000     0          
O        O      0.049475000000     0.188325000000     0.549475000000     0          
O        O      0.039340000000     0.100040000000     0.600040000000     0          
O        O      0.049525000000     0.111695000000     0.549525000000     0          
Si       Si     0.319050000000     0.031060000000     0.575045000000     0          
Si       Si     0.380990000000     0.031125000000     0.575130000000     0          
Si       Si     0.281085000000     0.031085000000     0.625000000000     0          
O        O      0.350000000000     0.035710000000     0.583280000000     0          
O        O      0.299745000000     0.039005000000     0.599765000000     0          
O        O      0.314400000000     0.000000000000     0.567260000000     0          
O        O      0.250000000000     0.035790000000     0.617325000000     0          
O        O      0.385785000000     0.000000000000     0.567670000000     0          
O        O      0.311675000000     0.049475000000     0.549475000000     0          
O        O      0.399960000000     0.039340000000     0.600040000000     0          
O        O      0.388305000000     0.049525000000     0.549525000000     0          
Si       Si     0.468940000000     0.319050000000     0.575045000000     0          
Si       Si     0.468875000000     0.380990000000     0.575130000000     0          
Si       Si     0.468915000000     0.281085000000     0.625000000000     0          
O        O      0.464290000000     0.350000000000     0.583280000000     0          
O        O      0.460995000000     0.299745000000     0.599765000000     0          
O        O      0.000000000000     0.314400000000     0.567260000000     0          
O        O      0.464210000000     0.250000000000     0.617325000000     0          
O        O      0.000000000000     0.385785000000     0.567670000000     0          
O        O      0.450525000000     0.311675000000     0.549475000000     0          
O        O      0.460660000000     0.399960000000     0.600040000000     0          
O        O      0.450475000000     0.388305000000     0.549525000000     0          
Si       Si     0.180950000000     0.468940000000     0.575045000000     0          
Si       Si     0.119010000000     0.468875000000     0.575130000000     0          
Si       Si     0.218915000000     0.468915000000     0.625000000000     0          
O        O      0.150000000000     0.464290000000     0.583280000000     0          
O        O      0.200255000000     0.460995000000     0.599765000000     0          
O        O      0.185600000000     0.000000000000     0.567260000000     0          
O        O      0.250000000000     0.464210000000     0.617325000000     0          
O        O      0.114215000000     0.000000000000     0.567670000000     0          
O        O      0.188325000000     0.450525000000     0.549475000000     0          
O        O      0.100040000000     0.460660000000     0.600040000000     0          
O        O      0.111695000000     0.450475000000     0.549525000000     0          
Si       Si     0.031060000000     0.319050000000     0.924955000000     0          
Si       Si     0.031125000000     0.380990000000     0.924870000000     0          
Si       Si     0.031085000000     0.281085000000     0.875000000000     0          
O        O      0.035710000000     0.350000000000     0.916720000000     0          
O        O      0.039005000000     0.299745000000     0.900235000000     0          
O        O      0.000000000000     0.314400000000     0.932740000000     0          
O        O      0.035790000000     0.250000000000     0.882675000000     0          
O        O      0.000000000000     0.385785000000     0.932330000000     0          
O        O      0.049475000000     0.311675000000     0.950525000000     0          
O        O      0.039340000000     0.399960000000     0.899960000000     0          
O        O      0.049525000000     0.388305000000     0.950475000000     0          
Si       Si     0.180950000000     0.031060000000     0.924955000000     0          
Si       Si     0.119010000000     0.031125000000     0.924870000000     0          
Si       Si     0.218915000000     0.031085000000     0.875000000000     0          
O        O      0.150000000000     0.035710000000     0.916720000000     0          
O        O      0.200255000000     0.039005000000     0.900235000000     0          
O        O      0.185600000000     0.000000000000     0.932740000000     0          
O        O      0.250000000000     0.035790000000     0.882675000000     0          
O        O      0.114215000000     0.000000000000     0.932330000000     0          
O        O      0.188325000000     0.049475000000     0.950525000000     0          
O        O      0.100040000000     0.039340000000     0.899960000000     0          
O        O      0.111695000000     0.049525000000     0.950475000000     0          
Si       Si     0.468940000000     0.180950000000     0.924955000000     0          
Si       Si     0.468875000000     0.119010000000     0.924870000000     0          
Si       Si     0.468915000000     0.218915000000     0.875000000000     0          
O        O      0.464290000000     0.150000000000     0.916720000000     0          
O        O      0.460995000000     0.200255000000     0.900235000000     0          
O        O      0.000000000000     0.185600000000     0.932740000000     0          
O        O      0.464210000000     0.250000000000     0.882675000000     0          
O        O      0.000000000000     0.114215000000     0.932330000000     0          
O        O      0.450525000000     0.188325000000     0.950525000000     0          
O        O      0.460660000000     0.100040000000     0.899960000000     0          
O        O      0.450475000000     0.111695000000     0.950475000000     0          
Si       Si     0.319050000000     0.468940000000     0.924955000000     0          
Si       Si     0.380990000000     0.468875000000     0.924870000000     0          
Si       Si     0.281085000000     0.468915000000     0.875000000000     0          
O        O      0.350000000000     0.464290000000     0.916720000000     0          
O        O      0.299745000000     0.460995000000     0.900235000000     0          
O        O      0.314400000000     0.000000000000     0.932740000000     0          
O        O      0.250000000000     0.464210000000     0.882675000000     0          
O        O      0.385785000000     0.000000000000     0.932330000000     0          
O        O      0.311675000000     0.450525000000     0.950525000000     0          
O        O      0.399960000000     0.460660000000     0.899960000000     0          
O        O      0.388305000000     0.450475000000     0.950475000000     0          
Si       Si     0.075045000000     0.031060000000     0.680950000000     0          
Si       Si     0.075130000000     0.031125000000     0.619010000000     0          
Si       Si     0.125000000000     0.031085000000     0.718915000000     0          
O        O      0.083280000000     0.035710000000     0.650000000000     0          
O        O      0.099765000000     0.039005000000     0.700255000000     0          
O        O      0.067260000000     0.000000000000     0.685600000000     0          
O        O      0.117325000000     0.035790000000     0.750000000000     0          
O        O      0.067670000000     0.000000000000     0.614215000000     0          
O        O      0.049475000000     0.049475000000     0.688325000000     0          
O        O      0.100040000000     0.039340000000     0.600040000000     0          
O        O      0.049525000000     0.049525000000     0.611695000000     0          
Si       Si     0.075045000000     0.468940000000     0.819050000000     0          
Si       Si     0.075130000000     0.468875000000     0.880990000000     0          
Si       Si     0.125000000000     0.468915000000     0.781085000000     0          
O        O      0.083280000000     0.464290000000     0.850000000000     0          
O        O      0.099765000000     0.460995000000     0.799745000000     0          
O        O      0.067260000000     0.000000000000     0.814400000000     0          
O        O      0.117325000000     0.464210000000     0.750000000000     0          
O        O      0.067670000000     0.000000000000     0.885785000000     0          
O        O      0.049475000000     0.450525000000     0.811675000000     0          
O        O      0.100040000000     0.460660000000     0.899960000000     0          
O        O      0.049525000000     0.450475000000     0.888305000000     0          
Si       Si     0.031060000000     0.075045000000     0.819050000000     0          
Si       Si     0.031125000000     0.075130000000     0.880990000000     0          
Si       Si     0.031085000000     0.125000000000     0.781085000000     0          
O        O      0.035710000000     0.083280000000     0.850000000000     0          
O        O      0.039005000000     0.099765000000     0.799745000000     0          
O        O      0.000000000000     0.067260000000     0.814400000000     0          
O        O      0.035790000000     0.117325000000     0.750000000000     0          
O        O      0.000000000000     0.067670000000     0.885785000000     0          
O        O      0.049475000000     0.049475000000     0.811675000000     0          
O        O      0.039340000000     0.100040000000     0.899960000000     0          
O        O      0.049525000000     0.049525000000     0.888305000000     0          
Si       Si     0.424955000000     0.031060000000     0.819050000000     0          
Si       Si     0.424870000000     0.031125000000     0.880990000000     0          
Si       Si     0.375000000000     0.031085000000     0.781085000000     0          
O        O      0.416720000000     0.035710000000     0.850000000000     0          
O        O      0.400235000000     0.039005000000     0.799745000000     0          
O        O      0.432740000000     0.000000000000     0.814400000000     0          
O        O      0.382675000000     0.035790000000     0.750000000000     0          
O        O      0.432330000000     0.000000000000     0.885785000000     0          
O        O      0.450525000000     0.049475000000     0.811675000000     0          
O        O      0.399960000000     0.039340000000     0.899960000000     0          
O        O      0.450475000000     0.049525000000     0.888305000000     0          
Si       Si     0.468940000000     0.424955000000     0.819050000000     0          
Si       Si     0.468875000000     0.424870000000     0.880990000000     0          
Si       Si     0.468915000000     0.375000000000     0.781085000000     0          
O        O      0.464290000000     0.416720000000     0.850000000000     0          
O        O      0.460995000000     0.400235000000     0.799745000000     0          
O        O      0.000000000000     0.432740000000     0.814400000000     0          
O        O      0.464210000000     0.382675000000     0.750000000000     0          
O        O      0.000000000000     0.432330000000     0.885785000000     0          
O        O      0.450525000000     0.450525000000     0.811675000000     0          
O        O      0.460660000000     0.399960000000     0.899960000000     0          
O        O      0.450475000000     0.450475000000     0.888305000000     0          
Si       Si     0.424955000000     0.468940000000     0.680950000000     0          
Si       Si     0.424870000000     0.468875000000     0.619010000000     0          
Si       Si     0.375000000000     0.468915000000     0.718915000000     0          
O        O      0.416720000000     0.464290000000     0.650000000000     0          
O        O      0.400235000000     0.460995000000     0.700255000000     0          
O        O      0.432740000000     0.000000000000     0.685600000000     0          
O        O      0.382675000000     0.464210000000     0.750000000000     0          
O        O      0.432330000000     0.000000000000     0.614215000000     0          
O        O      0.450525000000     0.450525000000     0.688325000000     0          
O        O      0.399960000000     0.460660000000     0.600040000000     0          
O        O      0.450475000000     0.450475000000     0.611695000000     0          
Si       Si     0.031060000000     0.424955000000     0.680950000000     0          
Si       Si     0.031125000000     0.424870000000     0.619010000000     0          
Si       Si     0.031085000000     0.375000000000     0.718915000000     0          
O        O      0.035710000000     0.416720000000     0.650000000000     0          
O        O      0.039005000000     0.400235000000     0.700255000000     0          
O        O      0.000000000000     0.432740000000     0.685600000000     0          
O        O      0.035790000000     0.382675000000     0.750000000000     0          
O        O      0.000000000000     0.432330000000     0.614215000000     0          
O        O      0.049475000000     0.450525000000     0.688325000000     0          
O        O      0.039340000000     0.399960000000     0.600040000000     0          
O        O      0.049525000000     0.450475000000     0.611695000000     0          
Si       Si     0.468940000000     0.075045000000     0.680950000000     0          
Si       Si     0.468875000000     0.075130000000     0.619010000000     0          
Si       Si     0.468915000000     0.125000000000     0.718915000000     0          
O        O      0.464290000000     0.083280000000     0.650000000000     0          
O        O      0.460995000000     0.099765000000     0.700255000000     0          
O        O      0.000000000000     0.067260000000     0.685600000000     0          
O        O      0.464210000000     0.117325000000     0.750000000000     0          
O        O      0.000000000000     0.067670000000     0.614215000000     0          
O        O      0.450525000000     0.049475000000     0.688325000000     0          
O        O      0.460660000000     0.100040000000     0.600040000000     0          
O        O      0.450475000000     0.049525000000     0.611695000000     0          
Si       Si     0.319050000000     0.424955000000     0.968940000000     0          
Si       Si     0.380990000000     0.424870000000     0.968875000000     0          
Si       Si     0.281085000000     0.375000000000     0.968915000000     0          
O        O      0.350000000000     0.416720000000     0.964290000000     0          
O        O      0.299745000000     0.400235000000     0.960995000000     0          
Si       Si     0.075045000000     0.319050000000     0.968940000000     0          
Si       Si     0.075130000000     0.380990000000     0.968875000000     0          
Si       Si     0.125000000000     0.281085000000     0.968915000000     0          
O        O      0.083280000000     0.350000000000     0.964290000000     0          
O        O      0.099765000000     0.299745000000     0.960995000000     0          
Si       Si     0.180950000000     0.075045000000     0.968940000000     0          
Si       Si     0.119010000000     0.075130000000     0.968875000000     0          
Si       Si     0.218915000000     0.125000000000     0.968915000000     0          
O        O      0.150000000000     0.083280000000     0.964290000000     0          
O        O      0.200255000000     0.099765000000     0.960995000000     0          
Si       Si     0.424955000000     0.180950000000     0.968940000000     0          
Si       Si     0.424870000000     0.119010000000     0.968875000000     0          
Si       Si     0.375000000000     0.218915000000     0.968915000000     0          
O        O      0.416720000000     0.150000000000     0.964290000000     0          
O        O      0.400235000000     0.200255000000     0.960995000000     0          
Si       Si     0.319050000000     0.075045000000     0.531060000000     0          
Si       Si     0.380990000000     0.075130000000     0.531125000000     0          
Si       Si     0.281085000000     0.125000000000     0.531085000000     0          
O        O      0.350000000000     0.083280000000     0.535710000000     0          
O        O      0.299745000000     0.099765000000     0.539005000000     0          
Si       Si     0.424955000000     0.319050000000     0.531060000000     0          
Si       Si     0.424870000000     0.380990000000     0.531125000000     0          
Si       Si     0.375000000000     0.281085000000     0.531085000000     0          
O        O      0.416720000000     0.350000000000     0.535710000000     0          
O        O      0.400235000000     0.299745000000     0.539005000000     0          
Si       Si     0.180950000000     0.424955000000     0.531060000000     0          
Si       Si     0.119010000000     0.424870000000     0.531125000000     0          
Si       Si     0.218915000000     0.375000000000     0.531085000000     0          
O        O      0.150000000000     0.416720000000     0.535710000000     0          
O        O      0.200255000000     0.400235000000     0.539005000000     0          
Si       Si     0.075045000000     0.180950000000     0.531060000000     0          
Si       Si     0.075130000000     0.119010000000     0.531125000000     0          
Si       Si     0.125000000000     0.218915000000     0.531085000000     0          
O        O      0.083280000000     0.150000000000     0.535710000000     0          
O        O      0.099765000000     0.200255000000     0.539005000000     0          
Si       Si     0.468940000000     0.319050000000     0.924955000000     0          
Si       Si     0.468875000000     0.380990000000     0.924870000000     0          
Si       Si     0.468915000000     0.281085000000     0.875000000000     0          
O        O      0.464290000000     0.350000000000     0.916720000000     0          
O        O      0.460995000000     0.299745000000     0.900235000000     0          
Si       Si     0.180950000000     0.468940000000     0.924955000000     0          
Si       Si     0.119010000000     0.468875000000     0.924870000000     0          
Si       Si     0.218915000000     0.468915000000     0.875000000000     0          
O        O      0.150000000000     0.464290000000     0.916720000000     0          
O        O      0.200255000000     0.460995000000     0.900235000000     0          
Si       Si     0.031060000000     0.180950000000     0.924955000000     0          
Si       Si     0.031125000000     0.119010000000     0.924870000000     0          
Si       Si     0.031085000000     0.218915000000     0.875000000000     0          
O        O      0.035710000000     0.150000000000     0.916720000000     0          
O        O      0.039005000000     0.200255000000     0.900235000000     0          
Si       Si     0.319050000000     0.031060000000     0.924955000000     0          
Si       Si     0.380990000000     0.031125000000     0.924870000000     0          
Si       Si     0.281085000000     0.031085000000     0.875000000000     0          
O        O      0.350000000000     0.035710000000     0.916720000000     0          
O        O      0.299745000000     0.039005000000     0.900235000000     0          
Si       Si     0.468940000000     0.180950000000     0.575045000000     0          
Si       Si     0.468875000000     0.119010000000     0.575130000000     0          
Si       Si     0.468915000000     0.218915000000     0.625000000000     0          
O        O      0.464290000000     0.150000000000     0.583280000000     0          
O        O      0.460995000000     0.200255000000     0.599765000000     0          
Si       Si     0.319050000000     0.468940000000     0.575045000000     0          
Si       Si     0.380990000000     0.468875000000     0.575130000000     0          
Si       Si     0.281085000000     0.468915000000     0.625000000000     0          
O        O      0.350000000000     0.464290000000     0.583280000000     0          
O        O      0.299745000000     0.460995000000     0.599765000000     0          
Si       Si     0.031060000000     0.319050000000     0.575045000000     0          
Si       Si     0.031125000000     0.380990000000     0.575130000000     0          
Si       Si     0.031085000000     0.281085000000     0.625000000000     0          
O        O      0.035710000000     0.350000000000     0.583280000000     0          
O        O      0.039005000000     0.299745000000     0.599765000000     0          
Si       Si     0.180950000000     0.031060000000     0.575045000000     0          
Si       Si     0.119010000000     0.031125000000     0.575130000000     0          
Si       Si     0.218915000000     0.031085000000     0.625000000000     0          
O        O      0.150000000000     0.035710000000     0.583280000000     0          
O        O      0.200255000000     0.039005000000     0.599765000000     0          
Si       Si     0.424955000000     0.468940000000     0.819050000000     0          
Si       Si     0.424870000000     0.468875000000     0.880990000000     0          
Si       Si     0.375000000000     0.468915000000     0.781085000000     0          
O        O      0.416720000000     0.464290000000     0.850000000000     0          
O        O      0.400235000000     0.460995000000     0.799745000000     0          
Si       Si     0.424955000000     0.031060000000     0.680950000000     0          
Si       Si     0.424870000000     0.031125000000     0.619010000000     0          
Si       Si     0.375000000000     0.031085000000     0.718915000000     0          
O        O      0.416720000000     0.035710000000     0.650000000000     0          
O        O      0.400235000000     0.039005000000     0.700255000000     0          
Si       Si     0.468940000000     0.424955000000     0.680950000000     0          
Si       Si     0.468875000000     0.424870000000     0.619010000000     0          
Si       Si     0.468915000000     0.375000000000     0.718915000000     0          
O        O      0.464290000000     0.416720000000     0.650000000000     0          
O        O      0.460995000000     0.400235000000     0.700255000000     0          
Si       Si     0.075045000000     0.468940000000     0.680950000000     0          
Si       Si     0.075130000000     0.468875000000     0.619010000000     0          
Si       Si     0.125000000000     0.468915000000     0.718915000000     0          
O        O      0.083280000000     0.464290000000     0.650000000000     0          
O        O      0.099765000000     0.460995000000     0.700255000000     0          
Si       Si     0.031060000000     0.075045000000     0.680950000000     0          
Si       Si     0.031125000000     0.075130000000     0.619010000000     0          
Si       Si     0.031085000000     0.125000000000     0.718915000000     0          
O        O      0.035710000000     0.083280000000     0.650000000000     0          
O        O      0.039005000000     0.099765000000     0.700255000000     0          
Si       Si     0.075045000000     0.031060000000     0.819050000000     0          
Si       Si     0.075130000000     0.031125000000     0.880990000000     0          
Si       Si     0.125000000000     0.031085000000     0.781085000000     0          
O        O      0.083280000000     0.035710000000     0.850000000000     0          
O        O      0.099765000000     0.039005000000     0.799745000000     0          
Si       Si     0.468940000000     0.075045000000     0.819050000000     0          
Si       Si     0.468875000000     0.075130000000     0.880990000000     0          
Si       Si     0.468915000000     0.125000000000     0.781085000000     0          
O        O      0.464290000000     0.083280000000     0.850000000000     0          
O        O      0.460995000000     0.099765000000     0.799745000000     0          
Si       Si     0.031060000000     0.424955000000     0.819050000000     0          
Si       Si     0.031125000000     0.424870000000     0.880990000000     0          
Si       Si     0.031085000000     0.375000000000     0.781085000000     0          
O        O      0.035710000000     0.416720000000     0.850000000000     0          
O        O      0.039005000000     0.400235000000     0.799745000000     0          
Si       Si     0.430950000000     0.325045000000     0.781060000000     0          
Si       Si     0.369010000000     0.325130000000     0.781125000000     0          
O        O      0.400000000000     0.333280000000     0.785710000000     0          
O        O      0.450255000000     0.349765000000     0.789005000000     0          
O        O      0.435600000000     0.317260000000     0.750000000000     0          
O        O      0.000000000000     0.367325000000     0.785790000000     0          
O        O      0.364215000000     0.317670000000     0.750000000000     0          
O        O      0.438325000000     0.299475000000     0.799475000000     0          
O        O      0.350040000000     0.350040000000     0.789340000000     0          
O        O      0.361695000000     0.299525000000     0.799525000000     0          
Si       Si     0.174955000000     0.430950000000     0.781060000000     0          
Si       Si     0.174870000000     0.369010000000     0.781125000000     0          
O        O      0.166720000000     0.400000000000     0.785710000000     0          
O        O      0.150235000000     0.450255000000     0.789005000000     0          
O        O      0.182740000000     0.435600000000     0.750000000000     0          
O        O      0.132675000000     0.000000000000     0.785790000000     0          
O        O      0.182330000000     0.364215000000     0.750000000000     0          
O        O      0.200525000000     0.438325000000     0.799475000000     0          
O        O      0.149960000000     0.350040000000     0.789340000000     0          
O        O      0.200475000000     0.361695000000     0.799525000000     0          
Si       Si     0.069050000000     0.174955000000     0.781060000000     0          
Si       Si     0.130990000000     0.174870000000     0.781125000000     0          
O        O      0.100000000000     0.166720000000     0.785710000000     0          
O        O      0.049745000000     0.150235000000     0.789005000000     0          
O        O      0.064400000000     0.182740000000     0.750000000000     0          
O        O      0.000000000000     0.132675000000     0.785790000000     0          
O        O      0.135785000000     0.182330000000     0.750000000000     0          
O        O      0.061675000000     0.200525000000     0.799475000000     0          
O        O      0.149960000000     0.149960000000     0.789340000000     0          
O        O      0.138305000000     0.200475000000     0.799525000000     0          
Si       Si     0.325045000000     0.069050000000     0.781060000000     0          
Si       Si     0.325130000000     0.130990000000     0.781125000000     0          
O        O      0.333280000000     0.100000000000     0.785710000000     0          
O        O      0.349765000000     0.049745000000     0.789005000000     0          
O        O      0.317260000000     0.064400000000     0.750000000000     0          
O        O      0.367325000000     0.000000000000     0.785790000000     0          
O        O      0.317670000000     0.135785000000     0.750000000000     0          
O        O      0.299475000000     0.061675000000     0.799475000000     0          
O        O      0.350040000000     0.149960000000     0.789340000000     0          
O        O      0.299525000000     0.138305000000     0.799525000000     0          
Si       Si     0.430950000000     0.174955000000     0.718940000000     0          
Si       Si     0.369010000000     0.174870000000     0.718875000000     0          
O        O      0.400000000000     0.166720000000     0.714290000000     0          
O        O      0.450255000000     0.150235000000     0.710995000000     0          
O        O      0.435600000000     0.182740000000     0.750000000000     0          
O        O      0.000000000000     0.132675000000     0.714210000000     0          
O        O      0.364215000000     0.182330000000     0.750000000000     0          
O        O      0.438325000000     0.200525000000     0.700525000000     0          
O        O      0.350040000000     0.149960000000     0.710660000000     0          
O        O      0.361695000000     0.200475000000     0.700475000000     0          
Si       Si     0.325045000000     0.430950000000     0.718940000000     0          
Si       Si     0.325130000000     0.369010000000     0.718875000000     0          
O        O      0.333280000000     0.400000000000     0.714290000000     0          
O        O      0.349765000000     0.450255000000     0.710995000000     0          
O        O      0.317260000000     0.435600000000     0.750000000000     0          
O        O      0.367325000000     0.000000000000     0.714210000000     0          
O        O      0.317670000000     0.364215000000     0.750000000000     0          
O        O      0.299475000000     0.438325000000     0.700525000000     0          
O        O      0.350040000000     0.350040000000     0.710660000000     0          
O        O      0.299525000000     0.361695000000     0.700475000000     0          
Si       Si     0.069050000000     0.325045000000     0.718940000000     0          
Si       Si     0.130990000000     0.325130000000     0.718875000000     0          
O        O      0.100000000000     0.333280000000     0.714290000000     0          
O        O      0.049745000000     0.349765000000     0.710995000000     0          
O        O      0.064400000000     0.317260000000     0.750000000000     0          
O        O      0.000000000000     0.367325000000     0.714210000000     0          
O        O      0.135785000000     0.317670000000     0.750000000000     0          
O        O      0.061675000000     0.299475000000     0.700525000000     0          
O        O      0.149960000000     0.350040000000     0.710660000000     0          
O        O      0.138305000000     0.299525000000     0.700475000000     0          
Si       Si     0.174955000000     0.069050000000     0.718940000000     0          
Si       Si     0.174870000000     0.130990000000     0.718875000000     0          
O        O      0.166720000000     0.100000000000     0.714290000000     0          
O        O      0.150235000000     0.049745000000     0.710995000000     0          
O        O      0.182740000000     0.064400000000     0.750000000000     0          
O        O      0.132675000000     0.000000000000     0.714210000000     0          
O        O      0.182330000000     0.135785000000     0.750000000000     0          
O        O      0.200525000000     0.061675000000     0.700525000000     0          
O        O      0.149960000000     0.149960000000     0.710660000000     0          
O        O      0.200475000000     0.138305000000     0.700475000000     0          
Si       Si     0.281060000000     0.430950000000     0.825045000000     0          
Si       Si     0.281125000000     0.369010000000     0.825130000000     0          
O        O      0.285710000000     0.400000000000     0.833280000000     0          
O        O      0.289005000000     0.450255000000     0.849765000000     0          
O        O      0.250000000000     0.435600000000     0.817260000000     0          
O        O      0.285790000000     0.000000000000     0.867325000000     0          
O        O      0.250000000000     0.364215000000     0.817670000000     0          
O        O      0.299475000000     0.438325000000     0.799475000000     0          
O        O      0.289340000000     0.350040000000     0.850040000000     0          
O        O      0.299525000000     0.361695000000     0.799525000000     0          
Si       Si     0.069050000000     0.281060000000     0.825045000000     0          
Si       Si     0.130990000000     0.281125000000     0.825130000000     0          
O        O      0.100000000000     0.285710000000     0.833280000000     0          
O        O      0.049745000000     0.289005000000     0.849765000000     0          
O        O      0.064400000000     0.250000000000     0.817260000000     0          
O        O      0.000000000000     0.285790000000     0.867325000000     0          
O        O      0.135785000000     0.250000000000     0.817670000000     0          
O        O      0.061675000000     0.299475000000     0.799475000000     0          
O        O      0.149960000000     0.289340000000     0.850040000000     0          
O        O      0.138305000000     0.299525000000     0.799525000000     0          
Si       Si     0.218940000000     0.069050000000     0.825045000000     0          
Si       Si     0.218875000000     0.130990000000     0.825130000000     0          
O        O      0.214290000000     0.100000000000     0.833280000000     0          
O        O      0.210995000000     0.049745000000     0.849765000000     0          
O        O      0.250000000000     0.064400000000     0.817260000000     0          
O        O      0.214210000000     0.000000000000     0.867325000000     0          
O        O      0.250000000000     0.135785000000     0.817670000000     0          
O        O      0.200525000000     0.061675000000     0.799475000000     0          
O        O      0.210660000000     0.149960000000     0.850040000000     0          
O        O      0.200475000000     0.138305000000     0.799525000000     0          
Si       Si     0.430950000000     0.218940000000     0.825045000000     0          
Si       Si     0.369010000000     0.218875000000     0.825130000000     0          
O        O      0.400000000000     0.214290000000     0.833280000000     0          
O        O      0.450255000000     0.210995000000     0.849765000000     0          
O        O      0.435600000000     0.250000000000     0.817260000000     0          
O        O      0.000000000000     0.214210000000     0.867325000000     0          
O        O      0.364215000000     0.250000000000     0.817670000000     0          
O        O      0.438325000000     0.200525000000     0.799475000000     0          
O        O      0.350040000000     0.210660000000     0.850040000000     0          
O        O      0.361695000000     0.200475000000     0.799525000000     0          
Si       Si     0.281060000000     0.069050000000     0.674955000000     0          
Si       Si     0.281125000000     0.130990000000     0.674870000000     0          
O        O      0.285710000000     0.100000000000     0.666720000000     0          
O        O      0.289005000000     0.049745000000     0.650235000000     0          
O        O      0.250000000000     0.064400000000     0.682740000000     0          
O        O      0.285790000000     0.000000000000     0.632675000000     0          
O        O      0.250000000000     0.135785000000     0.682330000000     0          
O        O      0.299475000000     0.061675000000     0.700525000000     0          
O        O      0.289340000000     0.149960000000     0.649960000000     0          
O        O      0.299525000000     0.138305000000     0.700475000000     0          
Si       Si     0.430950000000     0.281060000000     0.674955000000     0          
Si       Si     0.369010000000     0.281125000000     0.674870000000     0          
O        O      0.400000000000     0.285710000000     0.666720000000     0          
O        O      0.450255000000     0.289005000000     0.650235000000     0          
O        O      0.435600000000     0.250000000000     0.682740000000     0          
O        O      0.000000000000     0.285790000000     0.632675000000     0          
O        O      0.364215000000     0.250000000000     0.682330000000     0          
O        O      0.438325000000     0.299475000000     0.700525000000     0          
O        O      0.350040000000     0.289340000000     0.649960000000     0          
O        O      0.361695000000     0.299525000000     0.700475000000     0          
Si       Si     0.218940000000     0.430950000000     0.674955000000     0          
Si       Si     0.218875000000     0.369010000000     0.674870000000     0          
O        O      0.214290000000     0.400000000000     0.666720000000     0          
O        O      0.210995000000     0.450255000000     0.650235000000     0          
O        O      0.250000000000     0.435600000000     0.682740000000     0          
O        O      0.214210000000     0.000000000000     0.632675000000     0          
O        O      0.250000000000     0.364215000000     0.682330000000     0          
O        O      0.200525000000     0.438325000000     0.700525000000     0          
O        O      0.210660000000     0.350040000000     0.649960000000     0          
O        O      0.200475000000     0.361695000000     0.700475000000     0          
Si       Si     0.069050000000     0.218940000000     0.674955000000     0          
Si       Si     0.130990000000     0.218875000000     0.674870000000     0          
O        O      0.100000000000     0.214290000000     0.666720000000     0          
O        O      0.049745000000     0.210995000000     0.650235000000     0          
O        O      0.064400000000     0.250000000000     0.682740000000     0          
O        O      0.000000000000     0.214210000000     0.632675000000     0          
O        O      0.135785000000     0.250000000000     0.682330000000     0          
O        O      0.061675000000     0.200525000000     0.700525000000     0          
O        O      0.149960000000     0.210660000000     0.649960000000     0          
O        O      0.138305000000     0.200475000000     0.700475000000     0          
Si       Si     0.325045000000     0.281060000000     0.930950000000     0          
Si       Si     0.325130000000     0.281125000000     0.869010000000     0          
O        O      0.333280000000     0.285710000000     0.900000000000     0          
O        O      0.349765000000     0.289005000000     0.950255000000     0          
O        O      0.317260000000     0.250000000000     0.935600000000     0          
O        O      0.367325000000     0.285790000000     0.500000000000     0          
O        O      0.317670000000     0.250000000000     0.864215000000     0          
O        O      0.299475000000     0.299475000000     0.938325000000     0          
O        O      0.350040000000     0.289340000000     0.850040000000     0          
O        O      0.299525000000     0.299525000000     0.861695000000     0          
Si       Si     0.325045000000     0.218940000000     0.569050000000     0          
Si       Si     0.325130000000     0.218875000000     0.630990000000     0          
O        O      0.333280000000     0.214290000000     0.600000000000     0          
O        O      0.349765000000     0.210995000000     0.549745000000     0          
O        O      0.317260000000     0.250000000000     0.564400000000     0          
O        O      0.367325000000     0.214210000000     0.500000000000     0          
O        O      0.317670000000     0.250000000000     0.635785000000     0          
O        O      0.299475000000     0.200525000000     0.561675000000     0          
O        O      0.350040000000     0.210660000000     0.649960000000     0          
O        O      0.299525000000     0.200475000000     0.638305000000     0          
Si       Si     0.281060000000     0.325045000000     0.569050000000     0          
Si       Si     0.281125000000     0.325130000000     0.630990000000     0          
O        O      0.285710000000     0.333280000000     0.600000000000     0          
O        O      0.289005000000     0.349765000000     0.549745000000     0          
O        O      0.250000000000     0.317260000000     0.564400000000     0          
O        O      0.285790000000     0.367325000000     0.500000000000     0          
O        O      0.250000000000     0.317670000000     0.635785000000     0          
O        O      0.299475000000     0.299475000000     0.561675000000     0          
O        O      0.289340000000     0.350040000000     0.649960000000     0          
O        O      0.299525000000     0.299525000000     0.638305000000     0          
Si       Si     0.174955000000     0.281060000000     0.569050000000     0          
Si       Si     0.174870000000     0.281125000000     0.630990000000     0          
O        O      0.166720000000     0.285710000000     0.600000000000     0          
O        O      0.150235000000     0.289005000000     0.549745000000     0          
O        O      0.182740000000     0.250000000000     0.564400000000     0          
O        O      0.132675000000     0.285790000000     0.500000000000     0          
O        O      0.182330000000     0.250000000000     0.635785000000     0          
O        O      0.200525000000     0.299475000000     0.561675000000     0          
O        O      0.149960000000     0.289340000000     0.649960000000     0          
O        O      0.200475000000     0.299525000000     0.638305000000     0          
Si       Si     0.218940000000     0.174955000000     0.569050000000     0          
Si       Si     0.218875000000     0.174870000000     0.630990000000     0          
O        O      0.214290000000     0.166720000000     0.600000000000     0          
O        O      0.210995000000     0.150235000000     0.549745000000     0          
O        O      0.250000000000     0.182740000000     0.564400000000     0          
O        O      0.214210000000     0.132675000000     0.500000000000     0          
O        O      0.250000000000     0.182330000000     0.635785000000     0          
O        O      0.200525000000     0.200525000000     0.561675000000     0          
O        O      0.210660000000     0.149960000000     0.649960000000     0          
O        O      0.200475000000     0.200475000000     0.638305000000     0          
Si       Si     0.174955000000     0.218940000000     0.930950000000     0          
Si       Si     0.174870000000     0.218875000000     0.869010000000     0          
O        O      0.166720000000     0.214290000000     0.900000000000     0          
O        O      0.150235000000     0.210995000000     0.950255000000     0          
O        O      0.182740000000     0.250000000000     0.935600000000     0          
O        O      0.132675000000     0.214210000000     0.500000000000     0          
O        O      0.182330000000     0.250000000000     0.864215000000     0          
O        O      0.200525000000     0.200525000000     0.938325000000     0          
O        O      0.149960000000     0.210660000000     0.850040000000     0          
O        O      0.200475000000     0.200475000000     0.861695000000     0          
Si       Si     0.281060000000     0.174955000000     0.930950000000     0          
Si       Si     0.281125000000     0.174870000000     0.869010000000     0          
O        O      0.285710000000     0.166720000000     0.900000000000     0          
O        O      0.289005000000     0.150235000000     0.950255000000     0          
O        O      0.250000000000     0.182740000000     0.935600000000     0          
O        O      0.285790000000     0.132675000000     0.500000000000     0          
O        O      0.250000000000     0.182330000000     0.864215000000     0          
O        O      0.299475000000     0.200525000000     0.938325000000     0          
O        O      0.289340000000     0.149960000000     0.850040000000     0          
O        O      0.299525000000     0.200475000000     0.861695000000     0          
Si       Si     0.218940000000     0.325045000000     0.930950000000     0          
Si       Si     0.218875000000     0.325130000000     0.869010000000     0          
O        O      0.214290000000     0.333280000000     0.900000000000     0          
O        O      0.210995000000     0.349765000000     0.950255000000     0          
O        O      0.250000000000     0.317260000000     0.935600000000     0          
O        O      0.214210000000     0.367325000000     0.500000000000     0          
O        O      0.250000000000     0.317670000000     0.864215000000     0          
O        O      0.200525000000     0.299475000000     0.938325000000     0          
O        O      0.210660000000     0.350040000000     0.850040000000     0          
O        O      0.200475000000     0.299525000000     0.861695000000     0          
Si       Si     0.069050000000     0.174955000000     0.718940000000     0          
Si       Si     0.130990000000     0.174870000000     0.718875000000     0          
O        O      0.100000000000     0.166720000000     0.714290000000     0          
O        O      0.049745000000     0.150235000000     0.710995000000     0          
Si       Si     0.325045000000     0.069050000000     0.718940000000     0          
Si       Si     0.325130000000     0.130990000000     0.718875000000     0          
O        O      0.333280000000     0.100000000000     0.714290000000     0          
O        O      0.349765000000     0.049745000000     0.710995000000     0          
Si       Si     0.430950000000     0.325045000000     0.718940000000     0          
Si       Si     0.369010000000     0.325130000000     0.718875000000     0          
O        O      0.400000000000     0.333280000000     0.714290000000     0          
O        O      0.450255000000     0.349765000000     0.710995000000     0          
Si       Si     0.174955000000     0.430950000000     0.718940000000     0          
Si       Si     0.174870000000     0.369010000000     0.718875000000     0          
O        O      0.166720000000     0.400000000000     0.714290000000     0          
O        O      0.150235000000     0.450255000000     0.710995000000     0          
Si       Si     0.069050000000     0.325045000000     0.781060000000     0          
Si       Si     0.130990000000     0.325130000000     0.781125000000     0          
O        O      0.100000000000     0.333280000000     0.785710000000     0          
O        O      0.049745000000     0.349765000000     0.789005000000     0          
Si       Si     0.174955000000     0.069050000000     0.781060000000     0          
Si       Si     0.174870000000     0.130990000000     0.781125000000     0          
O        O      0.166720000000     0.100000000000     0.785710000000     0          
O        O      0.150235000000     0.049745000000     0.789005000000     0          
Si       Si     0.430950000000     0.174955000000     0.781060000000     0          
Si       Si     0.369010000000     0.174870000000     0.781125000000     0          
O        O      0.400000000000     0.166720000000     0.785710000000     0          
O        O      0.450255000000     0.150235000000     0.789005000000     0          
Si       Si     0.325045000000     0.430950000000     0.781060000000     0          
Si       Si     0.325130000000     0.369010000000     0.781125000000     0          
O        O      0.333280000000     0.400000000000     0.785710000000     0          
O        O      0.349765000000     0.450255000000     0.789005000000     0          
Si       Si     0.218940000000     0.069050000000     0.674955000000     0          
Si       Si     0.218875000000     0.130990000000     0.674870000000     0          
O        O      0.214290000000     0.100000000000     0.666720000000     0          
O        O      0.210995000000     0.049745000000     0.650235000000     0          
Si       Si     0.430950000000     0.218940000000     0.674955000000     0          
Si       Si     0.369010000000     0.218875000000     0.674870000000     0          
O        O      0.400000000000     0.214290000000     0.666720000000     0          
O        O      0.450255000000     0.210995000000     0.650235000000     0          
Si       Si     0.281060000000     0.430950000000     0.674955000000     0          
Si       Si     0.281125000000     0.369010000000     0.674870000000     0          
O        O      0.285710000000     0.400000000000     0.666720000000     0          
O        O      0.289005000000     0.450255000000     0.650235000000     0          
Si       Si     0.069050000000     0.281060000000     0.674955000000     0          
Si       Si     0.130990000000     0.281125000000     0.674870000000     0          
O        O      0.100000000000     0.285710000000     0.666720000000     0          
O        O      0.049745000000     0.289005000000     0.650235000000     0          
Si       Si     0.218940000000     0.430950000000     0.825045000000     0          
Si       Si     0.218875000000     0.369010000000     0.825130000000     0          
O        O      0.214290000000     0.400000000000     0.833280000000     0          
O        O      0.210995000000     0.450255000000     0.849765000000     0          
Si       Si     0.069050000000     0.218940000000     0.825045000000     0          
Si       Si     0.130990000000     0.218875000000     0.825130000000     0          
O        O      0.100000000000     0.214290000000     0.833280000000     0          
O        O      0.049745000000     0.210995000000     0.849765000000     0          
Si       Si     0.281060000000     0.069050000000     0.825045000000     0          
Si       Si     0.281125000000     0.130990000000     0.825130000000     0          
O        O      0.285710000000     0.100000000000     0.833280000000     0          
O        O      0.289005000000     0.049745000000     0.849765000000     0          
Si       Si     0.430950000000     0.281060000000     0.825045000000     0          
Si       Si     0.369010000000     0.281125000000     0.825130000000     0          
O        O      0.400000000000     0.285710000000     0.833280000000     0          
O        O      0.450255000000     0.289005000000     0.849765000000     0          
Si       Si     0.174955000000     0.218940000000     0.569050000000     0          
Si       Si     0.174870000000     0.218875000000     0.630990000000     0          
O        O      0.166720000000     0.214290000000     0.600000000000     0          
O        O      0.150235000000     0.210995000000     0.549745000000     0          
Si       Si     0.174955000000     0.281060000000     0.930950000000     0          
Si       Si     0.174870000000     0.281125000000     0.869010000000     0          
O        O      0.166720000000     0.285710000000     0.900000000000     0          
O        O      0.150235000000     0.289005000000     0.950255000000     0          
Si       Si     0.218940000000     0.174955000000     0.930950000000     0          
Si       Si     0.218875000000     0.174870000000     0.869010000000     0          
O        O      0.214290000000     0.166720000000     0.900000000000     0          
O        O      0.210995000000     0.150235000000     0.950255000000     0          
Si       Si     0.325045000000     0.218940000000     0.930950000000     0          
Si       Si     0.325130000000     0.218875000000     0.869010000000     0          
O        O      0.333280000000     0.214290000000     0.900000000000     0          
O        O      0.349765000000     0.210995000000     0.950255000000     0          
Si       Si     0.281060000000     0.325045000000     0.930950000000     0          
Si       Si     0.281125000000     0.325130000000     0.869010000000     0          
O        O      0.285710000000     0.333280000000     0.900000000000     0          
O        O      0.289005000000     0.349765000000     0.950255000000     0          
Si       Si     0.325045000000     0.281060000000     0.569050000000     0          
Si       Si     0.325130000000     0.281125000000     0.630990000000     0          
O        O      0.333280000000     0.285710000000     0.600000000000     0          
O        O      0.349765000000     0.289005000000     0.549745000000     0          
Si       Si     0.218940000000     0.325045000000     0.569050000000     0          
Si       Si     0.218875000000     0.325130000000     0.630990000000     0          
O        O      0.214290000000     0.333280000000     0.600000000000     0          
O        O      0.210995000000     0.349765000000     0.549745000000     0          
Si       Si     0.281060000000     0.174955000000     0.569050000000     0          
Si       Si     0.281125000000     0.174870000000     0.630990000000     0          
O        O      0.285710000000     0.166720000000     0.600000000000     0          
O        O      0.289005000000     0.150235000000     0.549745000000     0          
Si       Si     0.180950000000     0.575045000000     0.031060000000     0          
Si       Si     0.119010000000     0.575130000000     0.031125000000     0          
Si       Si     0.218915000000     0.625000000000     0.031085000000     0          
O        O      0.150000000000     0.583280000000     0.035710000000     0          
O        O      0.200255000000     0.599765000000     0.039005000000     0          
O        O      0.185600000000     0.567260000000     0.000000000000     0          
O        O      0.250000000000     0.617325000000     0.035790000000     0          
O        O      0.114215000000     0.567670000000     0.000000000000     0          
O        O      0.188325000000     0.549475000000     0.049475000000     0          
O        O      0.100040000000     0.600040000000     0.039340000000     0          
O        O      0.111695000000     0.549525000000     0.049525000000     0          
Si       Si     0.424955000000     0.680950000000     0.031060000000     0          
Si       Si     0.424870000000     0.619010000000     0.031125000000     0          
Si       Si     0.375000000000     0.718915000000     0.031085000000     0          
O        O      0.416720000000     0.650000000000     0.035710000000     0          
O        O      0.400235000000     0.700255000000     0.039005000000     0          
O        O      0.432740000000     0.685600000000     0.000000000000     0          
O        O      0.382675000000     0.750000000000     0.035790000000     0          
O        O      0.432330000000     0.614215000000     0.000000000000     0          
O        O      0.450525000000     0.688325000000     0.049475000000     0          
O        O      0.399960000000     0.600040000000     0.039340000000     0          
O        O      0.450475000000     0.611695000000     0.049525000000     0          
Si       Si     0.319050000000     0.924955000000     0.031060000000     0          
Si       Si     0.380990000000     0.924870000000     0.031125000000     0          
Si       Si     0.281085000000     0.875000000000     0.031085000000     0          
O        O      0.350000000000     0.916720000000     0.035710000000     0          
O        O      0.299745000000     0.900235000000     0.039005000000     0          
O        O      0.314400000000     0.932740000000     0.000000000000     0          
O        O      0.250000000000     0.882675000000     0.035790000000     0          
O        O      0.385785000000     0.932330000000     0.000000000000     0          
O        O      0.311675000000     0.950525000000     0.049475000000     0          
O        O      0.399960000000     0.899960000000     0.039340000000     0          
O        O      0.388305000000     0.950475000000     0.049525000000     0          
Si       Si     0.075045000000     0.819050000000     0.031060000000     0          
Si       Si     0.075130000000     0.880990000000     0.031125000000     0          
Si       Si     0.125000000000     0.781085000000     0.031085000000     0          
O        O      0.083280000000     0.850000000000     0.035710000000     0          
O        O      0.099765000000     0.799745000000     0.039005000000     0          
O        O      0.067260000000     0.814400000000     0.000000000000     0          
O        O      0.117325000000     0.750000000000     0.035790000000     0          
O        O      0.067670000000     0.885785000000     0.000000000000     0          
O        O      0.049475000000     0.811675000000     0.049475000000     0          
O        O      0.100040000000     0.899960000000     0.039340000000     0          
O        O      0.049525000000     0.888305000000     0.049525000000     0          
Si       Si     0.180950000000     0.924955000000     0.468940000000     0          
Si       Si     0.119010000000     0.924870000000     0.468875000000     0          
Si       Si     0.218915000000     0.875000000000     0.468915000000     0          
O        O      0.150000000000     0.916720000000     0.464290000000     0          
O        O      0.200255000000     0.900235000000     0.460995000000     0          
O        O      0.185600000000     0.932740000000     0.000000000000     0          
O        O      0.250000000000     0.882675000000     0.464210000000     0          
O        O      0.114215000000     0.932330000000     0.000000000000     0          
O        O      0.188325000000     0.950525000000     0.450525000000     0          
O        O      0.100040000000     0.899960000000     0.460660000000     0          
O        O      0.111695000000     0.950475000000     0.450475000000     0          
Si       Si     0.075045000000     0.680950000000     0.468940000000     0          
Si       Si     0.075130000000     0.619010000000     0.468875000000     0          
Si       Si     0.125000000000     0.718915000000     0.468915000000     0          
O        O      0.083280000000     0.650000000000     0.464290000000     0          
O        O      0.099765000000     0.700255000000     0.460995000000     0          
O        O      0.067260000000     0.685600000000     0.000000000000     0          
O        O      0.117325000000     0.750000000000     0.464210000000     0          
O        O      0.067670000000     0.614215000000     0.000000000000     0          
O        O      0.049475000000     0.688325000000     0.450525000000     0          
O        O      0.100040000000     0.600040000000     0.460660000000     0          
O        O      0.049525000000     0.611695000000     0.450475000000     0          
Si       Si     0.319050000000     0.575045000000     0.468940000000     0          
Si       Si     0.380990000000     0.575130000000     0.468875000000     0          
Si       Si     0.281085000000     0.625000000000     0.468915000000     0          
O        O      0.350000000000     0.583280000000     0.464290000000     0          
O        O      0.299745000000     0.599765000000     0.460995000000     0          
O        O      0.314400000000     0.567260000000     0.000000000000     0          
O        O      0.250000000000     0.617325000000     0.464210000000     0          
O        O      0.385785000000     0.567670000000     0.000000000000     0          
O        O      0.311675000000     0.549475000000     0.450525000000     0          
O        O      0.399960000000     0.600040000000     0.460660000000     0          
O        O      0.388305000000     0.549525000000     0.450475000000     0          
Si       Si     0.424955000000     0.819050000000     0.468940000000     0          
Si       Si     0.424870000000     0.880990000000     0.468875000000     0          
Si       Si     0.375000000000     0.781085000000     0.468915000000     0          
O        O      0.416720000000     0.850000000000     0.464290000000     0          
O        O      0.400235000000     0.799745000000     0.460995000000     0          
O        O      0.432740000000     0.814400000000     0.000000000000     0          
O        O      0.382675000000     0.750000000000     0.464210000000     0          
O        O      0.432330000000     0.885785000000     0.000000000000     0          
O        O      0.450525000000     0.811675000000     0.450525000000     0          
O        O      0.399960000000     0.899960000000     0.460660000000     0          
O        O      0.450475000000     0.888305000000     0.450475000000     0          
Si       Si     0.031060000000     0.680950000000     0.075045000000     0          
Si       Si     0.031125000000     0.619010000000     0.075130000000     0          
Si       Si     0.031085000000     0.718915000000     0.125000000000     0          
O        O      0.035710000000     0.650000000000     0.083280000000     0          
O        O      0.039005000000     0.700255000000     0.099765000000     0          
O        O      0.000000000000     0.685600000000     0.067260000000     0          
O        O      0.035790000000     0.750000000000     0.117325000000     0          
O        O      0.000000000000     0.614215000000     0.067670000000     0          
O        O      0.049475000000     0.688325000000     0.049475000000     0          
O        O      0.039340000000     0.600040000000     0.100040000000     0          
O        O      0.049525000000     0.611695000000     0.049525000000     0          
Si       Si     0.319050000000     0.531060000000     0.075045000000     0          
Si       Si     0.380990000000     0.531125000000     0.075130000000     0          
Si       Si     0.281085000000     0.531085000000     0.125000000000     0          
O        O      0.350000000000     0.535710000000     0.083280000000     0          
O        O      0.299745000000     0.539005000000     0.099765000000     0          
O        O      0.314400000000     0.500000000000     0.067260000000     0          
O        O      0.250000000000     0.535790000000     0.117325000000     0          
O        O      0.385785000000     0.500000000000     0.067670000000     0          
O        O      0.311675000000     0.549475000000     0.049475000000     0          
O        O      0.399960000000     0.539340000000     0.100040000000     0          
O        O      0.388305000000     0.549525000000     0.049525000000     0          
Si       Si     0.468940000000     0.819050000000     0.075045000000     0          
Si       Si     0.468875000000     0.880990000000     0.075130000000     0          
Si       Si     0.468915000000     0.781085000000     0.125000000000     0          
O        O      0.464290000000     0.850000000000     0.083280000000     0          
O        O      0.460995000000     0.799745000000     0.099765000000     0          
O        O      0.000000000000     0.814400000000     0.067260000000     0          
O        O      0.464210000000     0.750000000000     0.117325000000     0          
O        O      0.000000000000     0.885785000000     0.067670000000     0          
O        O      0.450525000000     0.811675000000     0.049475000000     0          
O        O      0.460660000000     0.899960000000     0.100040000000     0          
O        O      0.450475000000     0.888305000000     0.049525000000     0          
Si       Si     0.180950000000     0.968940000000     0.075045000000     0          
Si       Si     0.119010000000     0.968875000000     0.075130000000     0          
Si       Si     0.218915000000     0.968915000000     0.125000000000     0          
O        O      0.150000000000     0.964290000000     0.083280000000     0          
O        O      0.200255000000     0.960995000000     0.099765000000     0          
O        O      0.185600000000     0.500000000000     0.067260000000     0          
O        O      0.250000000000     0.964210000000     0.117325000000     0          
O        O      0.114215000000     0.500000000000     0.067670000000     0          
O        O      0.188325000000     0.950525000000     0.049475000000     0          
O        O      0.100040000000     0.960660000000     0.100040000000     0          
O        O      0.111695000000     0.950475000000     0.049525000000     0          
Si       Si     0.031060000000     0.819050000000     0.424955000000     0          
Si       Si     0.031125000000     0.880990000000     0.424870000000     0          
Si       Si     0.031085000000     0.781085000000     0.375000000000     0          
O        O      0.035710000000     0.850000000000     0.416720000000     0          
O        O      0.039005000000     0.799745000000     0.400235000000     0          
O        O      0.000000000000     0.814400000000     0.432740000000     0          
O        O      0.035790000000     0.750000000000     0.382675000000     0          
O        O      0.000000000000     0.885785000000     0.432330000000     0          
O        O      0.049475000000     0.811675000000     0.450525000000     0          
O        O      0.039340000000     0.899960000000     0.399960000000     0          
O        O      0.049525000000     0.888305000000     0.450475000000     0          
Si       Si     0.180950000000     0.531060000000     0.424955000000     0          
Si       Si     0.119010000000     0.531125000000     0.424870000000     0          
Si       Si     0.218915000000     0.531085000000     0.375000000000     0          
O        O      0.150000000000     0.535710000000     0.416720000000     0          
O        O      0.200255000000     0.539005000000     0.400235000000     0          
O        O      0.185600000000     0.500000000000     0.432740000000     0          
O        O      0.250000000000     0.535790000000     0.382675000000     0          
O        O      0.114215000000     0.500000000000     0.432330000000     0          
O        O      0.188325000000     0.549475000000     0.450525000000     0          
O        O      0.100040000000     0.539340000000     0.399960000000     0          
O        O      0.111695000000     0.549525000000     0.450475000000     0          
Si       Si     0.468940000000     0.680950000000     0.424955000000     0          
Si       Si     0.468875000000     0.619010000000     0.424870000000     0          
Si       Si     0.468915000000     0.718915000000     0.375000000000     0          
O        O      0.464290000000     0.650000000000     0.416720000000     0          
O        O      0.460995000000     0.700255000000     0.400235000000     0          
O        O      0.000000000000     0.685600000000     0.432740000000     0          
O        O      0.464210000000     0.750000000000     0.382675000000     0          
O        O      0.000000000000     0.614215000000     0.432330000000     0          
O        O      0.450525000000     0.688325000000     0.450525000000     0          
O        O      0.460660000000     0.600040000000     0.399960000000     0          
O        O      0.450475000000     0.611695000000     0.450475000000     0          
Si       Si     0.319050000000     0.968940000000     0.424955000000     0          
Si       Si     0.380990000000     0.968875000000     0.424870000000     0          
Si       Si     0.281085000000     0.968915000000     0.375000000000     0          
O        O      0.350000000000     0.964290000000     0.416720000000     0          
O        O      0.299745000000     0.960995000000     0.400235000000     0          
O        O      0.314400000000     0.500000000000     0.432740000000     0          
O        O      0.250000000000     0.964210000000     0.382675000000     0          
O        O      0.385785000000     0.500000000000     0.432330000000     0          
O        O      0.311675000000     0.950525000000     0.450525000000     0          
O        O      0.399960000000     0.960660000000     0.399960000000     0          
O        O      0.388305000000     0.950475000000     0.450475000000     0          
Si       Si     0.075045000000     0.531060000000     0.180950000000     0          
Si       Si     0.075130000000     0.531125000000     0.119010000000     0          
Si       Si     0.125000000000     0.531085000000     0.218915000000     0          
O        O      0.083280000000     0.535710000000     0.150000000000     0          
O        O      0.099765000000     0.539005000000     0.200255000000     0          
O        O      0.067260000000     0.500000000000     0.185600000000     0          
O        O      0.117325000000     0.535790000000     0.250000000000     0          
O        O      0.067670000000     0.500000000000     0.114215000000     0          
O        O      0.049475000000     0.549475000000     0.188325000000     0          
O        O      0.100040000000     0.539340000000     0.100040000000     0          
O        O      0.049525000000     0.549525000000     0.111695000000     0          
Si       Si     0.075045000000     0.968940000000     0.319050000000     0          
Si       Si     0.075130000000     0.968875000000     0.380990000000     0          
Si       Si     0.125000000000     0.968915000000     0.281085000000     0          
O        O      0.083280000000     0.964290000000     0.350000000000     0          
O        O      0.099765000000     0.960995000000     0.299745000000     0          
O        O      0.067260000000     0.500000000000     0.314400000000     0          
O        O      0.117325000000     0.964210000000     0.250000000000     0          
O        O      0.067670000000     0.500000000000     0.385785000000     0          
O        O      0.049475000000     0.950525000000     0.311675000000     0          
O        O      0.100040000000     0.960660000000     0.399960000000     0          
O        O      0.049525000000     0.950475000000     0.388305000000     0          
Si       Si     0.031060000000     0.575045000000     0.319050000000     0          
Si       Si     0.031125000000     0.575130000000     0.380990000000     0          
Si       Si     0.031085000000     0.625000000000     0.281085000000     0          
O        O      0.035710000000     0.583280000000     0.350000000000     0          
O        O      0.039005000000     0.599765000000     0.299745000000     0          
O        O      0.000000000000     0.567260000000     0.314400000000     0          
O        O      0.035790000000     0.617325000000     0.250000000000     0          
O        O      0.000000000000     0.567670000000     0.385785000000     0          
O        O      0.049475000000     0.549475000000     0.311675000000     0          
O        O      0.039340000000     0.600040000000     0.399960000000     0          
O        O      0.049525000000     0.549525000000     0.388305000000     0          
Si       Si     0.424955000000     0.531060000000     0.319050000000     0          
Si       Si     0.424870000000     0.531125000000     0.380990000000     0          
Si       Si     0.375000000000     0.531085000000     0.281085000000     0          
O        O      0.416720000000     0.535710000000     0.350000000000     0          
O        O      0.400235000000     0.539005000000     0.299745000000     0          
O        O      0.432740000000     0.500000000000     0.314400000000     0          
O        O      0.382675000000     0.535790000000     0.250000000000     0          
O        O      0.432330000000     0.500000000000     0.385785000000     0          
O        O      0.450525000000     0.549475000000     0.311675000000     0          
O        O      0.399960000000     0.539340000000     0.399960000000     0          
O        O      0.450475000000     0.549525000000     0.388305000000     0          
Si       Si     0.468940000000     0.924955000000     0.319050000000     0          
Si       Si     0.468875000000     0.924870000000     0.380990000000     0          
Si       Si     0.468915000000     0.875000000000     0.281085000000     0          
O        O      0.464290000000     0.916720000000     0.350000000000     0          
O        O      0.460995000000     0.900235000000     0.299745000000     0          
O        O      0.000000000000     0.932740000000     0.314400000000     0          
O        O      0.464210000000     0.882675000000     0.250000000000     0          
O        O      0.000000000000     0.932330000000     0.385785000000     0          
O        O      0.450525000000     0.950525000000     0.311675000000     0          
O        O      0.460660000000     0.899960000000     0.399960000000     0          
O        O      0.450475000000     0.950475000000     0.388305000000     0          
Si       Si     0.424955000000     0.968940000000     0.180950000000     0          
Si       Si     0.424870000000     0.968875000000     0.119010000000     0          
Si       Si     0.375000000000     0.968915000000     0.218915000000     0          
O        O      0.416720000000     0.964290000000     0.150000000000     0          
O        O      0.400235000000     0.960995000000     0.200255000000     0          
O        O      0.432740000000     0.500000000000     0.185600000000     0          
O        O      0.382675000000     0.964210000000     0.250000000000     0          
O        O      0.432330000000     0.500000000000     0.114215000000     0          
O        O      0.450525000000     0.950525000000     0.188325000000     0          
O        O      0.399960000000     0.960660000000     0.100040000000     0          
O        O      0.450475000000     0.950475000000     0.111695000000     0          
Si       Si     0.031060000000     0.924955000000     0.180950000000     0          
Si       Si     0.031125000000     0.924870000000     0.119010000000     0          
Si       Si     0.031085000000     0.875000000000     0.218915000000     0          
O        O      0.035710000000     0.916720000000     0.150000000000     0          
O        O      0.039005000000     0.900235000000     0.200255000000     0          
O        O      0.000000000000     0.932740000000     0.185600000000     0          
O        O      0.035790000000     0.882675000000     0.250000000000     0          
O        O      0.000000000000     0.932330000000     0.114215000000     0          
O        O      0.049475000000     0.950525000000     0.188325000000     0          
O        O      0.039340000000     0.899960000000     0.100040000000     0          
O        O      0.049525000000     0.950475000000     0.111695000000     0          
Si       Si     0.468940000000     0.575045000000     0.180950000000     0          
Si       Si     0.468875000000     0.575130000000     0.119010000000     0          
Si       Si     0.468915000000     0.625000000000     0.218915000000     0          
O        O      0.464290000000     0.583280000000     0.150000000000     0          
O        O      0.460995000000     0.599765000000     0.200255000000     0          
O        O      0.000000000000     0.567260000000     0.185600000000     0          
O        O      0.464210000000     0.617325000000     0.250000000000     0          
O        O      0.000000000000     0.567670000000     0.114215000000     0          
O        O      0.450525000000     0.549475000000     0.188325000000     0          
O        O      0.460660000000     0.600040000000     0.100040000000     0          
O        O      0.450475000000     0.549525000000     0.111695000000     0          
Si       Si     0.319050000000     0.924955000000     0.468940000000     0          
Si       Si     0.380990000000     0.924870000000     0.468875000000     0          
Si       Si     0.281085000000     0.875000000000     0.468915000000     0          
O        O      0.350000000000     0.916720000000     0.464290000000     0          
O        O      0.299745000000     0.900235000000     0.460995000000     0          
Si       Si     0.075045000000     0.819050000000     0.468940000000     0          
Si       Si     0.075130000000     0.880990000000     0.468875000000     0          
Si       Si     0.125000000000     0.781085000000     0.468915000000     0          
O        O      0.083280000000     0.850000000000     0.464290000000     0          
O        O      0.099765000000     0.799745000000     0.460995000000     0          
Si       Si     0.180950000000     0.575045000000     0.468940000000     0          
Si       Si     0.119010000000     0.575130000000     0.468875000000     0          
Si       Si     0.218915000000     0.625000000000     0.468915000000     0          
O        O      0.150000000000     0.583280000000     0.464290000000     0          
O        O      0.200255000000     0.599765000000     0.460995000000     0          
Si       Si     0.424955000000     0.680950000000     0.468940000000     0          
Si       Si     0.424870000000     0.619010000000     0.468875000000     0          
Si       Si     0.375000000000     0.718915000000     0.468915000000     0          
O        O      0.416720000000     0.650000000000     0.464290000000     0          
O        O      0.400235000000     0.700255000000     0.460995000000     0          
Si       Si     0.319050000000     0.575045000000     0.031060000000     0          
Si       Si     0.380990000000     0.575130000000     0.031125000000     0          
Si       Si     0.281085000000     0.625000000000     0.031085000000     0          
O        O      0.350000000000     0.583280000000     0.035710000000     0          
O        O      0.299745000000     0.599765000000     0.039005000000     0          
Si       Si     0.424955000000     0.819050000000     0.031060000000     0          
Si       Si     0.424870000000     0.880990000000     0.031125000000     0          
Si       Si     0.375000000000     0.781085000000     0.031085000000     0          
O        O      0.416720000000     0.850000000000     0.035710000000     0          
O        O      0.400235000000     0.799745000000     0.039005000000     0          
Si       Si     0.180950000000     0.924955000000     0.031060000000     0          
Si       Si     0.119010000000     0.924870000000     0.031125000000     0          
Si       Si     0.218915000000     0.875000000000     0.031085000000     0          
O        O      0.150000000000     0.916720000000     0.035710000000     0          
O        O      0.200255000000     0.900235000000     0.039005000000     0          
Si       Si     0.075045000000     0.680950000000     0.031060000000     0          
Si       Si     0.075130000000     0.619010000000     0.031125000000     0          
Si       Si     0.125000000000     0.718915000000     0.031085000000     0          
O        O      0.083280000000     0.650000000000     0.035710000000     0          
O        O      0.099765000000     0.700255000000     0.039005000000     0          
Si       Si     0.468940000000     0.819050000000     0.424955000000     0          
Si       Si     0.468875000000     0.880990000000     0.424870000000     0          
Si       Si     0.468915000000     0.781085000000     0.375000000000     0          
O        O      0.464290000000     0.850000000000     0.416720000000     0          
O        O      0.460995000000     0.799745000000     0.400235000000     0          
Si       Si     0.180950000000     0.968940000000     0.424955000000     0          
Si       Si     0.119010000000     0.968875000000     0.424870000000     0          
Si       Si     0.218915000000     0.968915000000     0.375000000000     0          
O        O      0.150000000000     0.964290000000     0.416720000000     0          
O        O      0.200255000000     0.960995000000     0.400235000000     0          
Si       Si     0.031060000000     0.680950000000     0.424955000000     0          
Si       Si     0.031125000000     0.619010000000     0.424870000000     0          
Si       Si     0.031085000000     0.718915000000     0.375000000000     0          
O        O      0.035710000000     0.650000000000     0.416720000000     0          
O        O      0.039005000000     0.700255000000     0.400235000000     0          
Si       Si     0.319050000000     0.531060000000     0.424955000000     0          
Si       Si     0.380990000000     0.531125000000     0.424870000000     0          
Si       Si     0.281085000000     0.531085000000     0.375000000000     0          
O        O      0.350000000000     0.535710000000     0.416720000000     0          
O        O      0.299745000000     0.539005000000     0.400235000000     0          
Si       Si     0.468940000000     0.680950000000     0.075045000000     0          
Si       Si     0.468875000000     0.619010000000     0.075130000000     0          
Si       Si     0.468915000000     0.718915000000     0.125000000000     0          
O        O      0.464290000000     0.650000000000     0.083280000000     0          
O        O      0.460995000000     0.700255000000     0.099765000000     0          
Si       Si     0.319050000000     0.968940000000     0.075045000000     0          
Si       Si     0.380990000000     0.968875000000     0.075130000000     0          
Si       Si     0.281085000000     0.968915000000     0.125000000000     0          
O        O      0.350000000000     0.964290000000     0.083280000000     0          
O        O      0.299745000000     0.960995000000     0.099765000000     0          
Si       Si     0.031060000000     0.819050000000     0.075045000000     0          
Si       Si     0.031125000000     0.880990000000     0.075130000000     0          
Si       Si     0.031085000000     0.781085000000     0.125000000000     0          
O        O      0.035710000000     0.850000000000     0.083280000000     0          
O        O      0.039005000000     0.799745000000     0.099765000000     0          
Si       Si     0.180950000000     0.531060000000     0.075045000000     0          
Si       Si     0.119010000000     0.531125000000     0.075130000000     0          
Si       Si     0.218915000000     0.531085000000     0.125000000000     0          
O        O      0.150000000000     0.535710000000     0.083280000000     0          
O        O      0.200255000000     0.539005000000     0.099765000000     0          
Si       Si     0.424955000000     0.968940000000     0.319050000000     0          
Si       Si     0.424870000000     0.968875000000     0.380990000000     0          
Si       Si     0.375000000000     0.968915000000     0.281085000000     0          
O        O      0.416720000000     0.964290000000     0.350000000000     0          
O        O      0.400235000000     0.960995000000     0.299745000000     0          
Si       Si     0.424955000000     0.531060000000     0.180950000000     0          
Si       Si     0.424870000000     0.531125000000     0.119010000000     0          
Si       Si     0.375000000000     0.531085000000     0.218915000000     0          
O        O      0.416720000000     0.535710000000     0.150000000000     0          
O        O      0.400235000000     0.539005000000     0.200255000000     0          
Si       Si     0.468940000000     0.924955000000     0.180950000000     0          
Si       Si     0.468875000000     0.924870000000     0.119010000000     0          
Si       Si     0.468915000000     0.875000000000     0.218915000000     0          
O        O      0.464290000000     0.916720000000     0.150000000000     0          
O        O      0.460995000000     0.900235000000     0.200255000000     0          
Si       Si     0.075045000000     0.968940000000     0.180950000000     0          
Si       Si     0.075130000000     0.968875000000     0.119010000000     0          
Si       Si     0.125000000000     0.968915000000     0.218915000000     0          
O        O      0.083280000000     0.964290000000     0.150000000000     0          
O        O      0.099765000000     0.960995000000     0.200255000000     0          
Si       Si     0.031060000000     0.575045000000     0.180950000000     0          
Si       Si     0.031125000000     0.575130000000     0.119010000000     0          
Si       Si     0.031085000000     0.625000000000     0.218915000000     0          
O        O      0.035710000000     0.583280000000     0.150000000000     0          
O        O      0.039005000000     0.599765000000     0.200255000000     0          
Si       Si     0.075045000000     0.531060000000     0.319050000000     0          
Si       Si     0.075130000000     0.531125000000     0.380990000000     0          
Si       Si     0.125000000000     0.531085000000     0.281085000000     0          
O        O      0.083280000000     0.535710000000     0.350000000000     0          
O        O      0.099765000000     0.539005000000     0.299745000000     0          
Si       Si     0.468940000000     0.575045000000     0.319050000000     0          
Si       Si     0.468875000000     0.575130000000     0.380990000000     0          
Si       Si     0.468915000000     0.625000000000     0.281085000000     0          
O        O      0.464290000000     0.583280000000     0.350000000000     0          
O        O      0.460995000000     0.599765000000     0.299745000000     0          
Si       Si     0.031060000000     0.924955000000     0.319050000000     0          
Si       Si     0.031125000000     0.924870000000     0.380990000000     0          
Si       Si     0.031085000000     0.875000000000     0.281085000000     0          
O        O      0.035710000000     0.916720000000     0.350000000000     0          
O        O      0.039005000000     0.900235000000     0.299745000000     0          
Si       Si     0.430950000000     0.825045000000     0.281060000000     0          
Si       Si     0.369010000000     0.825130000000     0.281125000000     0          
O        O      0.400000000000     0.833280000000     0.285710000000     0          
O        O      0.450255000000     0.849765000000     0.289005000000     0          
O        O      0.435600000000     0.817260000000     0.250000000000     0          
O        O      0.000000000000     0.867325000000     0.285790000000     0          
O        O      0.364215000000     0.817670000000     0.250000000000     0          
O        O      0.438325000000     0.799475000000     0.299475000000     0          
O        O      0.350040000000     0.850040000000     0.289340000000     0          
O        O      0.361695000000     0.799525000000     0.299525000000     0          
Si       Si     0.174955000000     0.930950000000     0.281060000000     0          
Si       Si     0.174870000000     0.869010000000     0.281125000000     0          
O        O      0.166720000000     0.900000000000     0.285710000000     0          
O        O      0.150235000000     0.950255000000     0.289005000000     0          
O        O      0.182740000000     0.935600000000     0.250000000000     0          
O        O      0.132675000000     0.500000000000     0.285790000000     0          
O        O      0.182330000000     0.864215000000     0.250000000000     0          
O        O      0.200525000000     0.938325000000     0.299475000000     0          
O        O      0.149960000000     0.850040000000     0.289340000000     0          
O        O      0.200475000000     0.861695000000     0.299525000000     0          
Si       Si     0.069050000000     0.674955000000     0.281060000000     0          
Si       Si     0.130990000000     0.674870000000     0.281125000000     0          
O        O      0.100000000000     0.666720000000     0.285710000000     0          
O        O      0.049745000000     0.650235000000     0.289005000000     0          
O        O      0.064400000000     0.682740000000     0.250000000000     0          
O        O      0.000000000000     0.632675000000     0.285790000000     0          
O        O      0.135785000000     0.682330000000     0.250000000000     0          
O        O      0.061675000000     0.700525000000     0.299475000000     0          
O        O      0.149960000000     0.649960000000     0.289340000000     0          
O        O      0.138305000000     0.700475000000     0.299525000000     0          
Si       Si     0.325045000000     0.569050000000     0.281060000000     0          
Si       Si     0.325130000000     0.630990000000     0.281125000000     0          
O        O      0.333280000000     0.600000000000     0.285710000000     0          
O        O      0.349765000000     0.549745000000     0.289005000000     0          
O        O      0.317260000000     0.564400000000     0.250000000000     0          
O        O      0.367325000000     0.500000000000     0.285790000000     0          
O        O      0.317670000000     0.635785000000     0.250000000000     0          
O        O      0.299475000000     0.561675000000     0.299475000000     0          
O        O      0.350040000000     0.649960000000     0.289340000000     0          
O        O      0.299525000000     0.638305000000     0.299525000000     0          
Si       Si     0.430950000000     0.674955000000     0.218940000000     0          
Si       Si     0.369010000000     0.674870000000     0.218875000000     0          
O        O      0.400000000000     0.666720000000     0.214290000000     0          
O        O      0.450255000000     0.650235000000     0.210995000000     0          
O        O      0.435600000000     0.682740000000     0.250000000000     0          
O        O      0.000000000000     0.632675000000     0.214210000000     0          
O        O      0.364215000000     0.682330000000     0.250000000000     0          
O        O      0.438325000000     0.700525000000     0.200525000000     0          
O        O      0.350040000000     0.649960000000     0.210660000000     0          
O        O      0.361695000000     0.700475000000     0.200475000000     0          
Si       Si     0.325045000000     0.930950000000     0.218940000000     0          
Si       Si     0.325130000000     0.869010000000     0.218875000000     0          
O        O      0.333280000000     0.900000000000     0.214290000000     0          
O        O      0.349765000000     0.950255000000     0.210995000000     0          
O        O      0.317260000000     0.935600000000     0.250000000000     0          
O        O      0.367325000000     0.500000000000     0.214210000000     0          
O        O      0.317670000000     0.864215000000     0.250000000000     0          
O        O      0.299475000000     0.938325000000     0.200525000000     0          
O        O      0.350040000000     0.850040000000     0.210660000000     0          
O        O      0.299525000000     0.861695000000     0.200475000000     0          
Si       Si     0.069050000000     0.825045000000     0.218940000000     0          
Si       Si     0.130990000000     0.825130000000     0.218875000000     0          
O        O      0.100000000000     0.833280000000     0.214290000000     0          
O        O      0.049745000000     0.849765000000     0.210995000000     0          
O        O      0.064400000000     0.817260000000     0.250000000000     0          
O        O      0.000000000000     0.867325000000     0.214210000000     0          
O        O      0.135785000000     0.817670000000     0.250000000000     0          
O        O      0.061675000000     0.799475000000     0.200525000000     0          
O        O      0.149960000000     0.850040000000     0.210660000000     0          
O        O      0.138305000000     0.799525000000     0.200475000000     0          
Si       Si     0.174955000000     0.569050000000     0.218940000000     0          
Si       Si     0.174870000000     0.630990000000     0.218875000000     0          
O        O      0.166720000000     0.600000000000     0.214290000000     0          
O        O      0.150235000000     0.549745000000     0.210995000000     0          
O        O      0.182740000000     0.564400000000     0.250000000000     0          
O        O      0.132675000000     0.500000000000     0.214210000000     0          
O        O      0.182330000000     0.635785000000     0.250000000000     0          
O        O      0.200525000000     0.561675000000     0.200525000000     0          
O        O      0.149960000000     0.649960000000     0.210660000000     0          
O        O      0.200475000000     0.638305000000     0.200475000000     0          
Si       Si     0.281060000000     0.930950000000     0.325045000000     0          
Si       Si     0.281125000000     0.869010000000     0.325130000000     0          
O        O      0.285710000000     0.900000000000     0.333280000000     0          
O        O      0.289005000000     0.950255000000     0.349765000000     0          
O        O      0.250000000000     0.935600000000     0.317260000000     0          
O        O      0.285790000000     0.500000000000     0.367325000000     0          
O        O      0.250000000000     0.864215000000     0.317670000000     0          
O        O      0.299475000000     0.938325000000     0.299475000000     0          
O        O      0.289340000000     0.850040000000     0.350040000000     0          
O        O      0.299525000000     0.861695000000     0.299525000000     0          
Si       Si     0.069050000000     0.781060000000     0.325045000000     0          
Si       Si     0.130990000000     0.781125000000     0.325130000000     0          
O        O      0.100000000000     0.785710000000     0.333280000000     0          
O        O      0.049745000000     0.789005000000     0.349765000000     0          
O        O      0.064400000000     0.750000000000     0.317260000000     0          
O        O      0.000000000000     0.785790000000     0.367325000000     0          
O        O      0.135785000000     0.750000000000     0.317670000000     0          
O        O      0.061675000000     0.799475000000     0.299475000000     0          
O        O      0.149960000000     0.789340000000     0.350040000000     0          
O        O      0.138305000000     0.799525000000     0.299525000000     0          
Si       Si     0.218940000000     0.569050000000     0.325045000000     0          
Si       Si     0.218875000000     0.630990000000     0.325130000000     0          
O        O      0.214290000000     0.600000000000     0.333280000000     0          
O        O      0.210995000000     0.549745000000     0.349765000000     0          
O        O      0.250000000000     0.564400000000     0.317260000000     0          
O        O      0.214210000000     0.500000000000     0.367325000000     0          
O        O      0.250000000000     0.635785000000     0.317670000000     0          
O        O      0.200525000000     0.561675000000     0.299475000000     0          
O        O      0.210660000000     0.649960000000     0.350040000000     0          
O        O      0.200475000000     0.638305000000     0.299525000000     0          
Si       Si     0.430950000000     0.718940000000     0.325045000000     0          
Si       Si     0.369010000000     0.718875000000     0.325130000000     0          
O        O      0.400000000000     0.714290000000     0.333280000000     0          
O        O      0.450255000000     0.710995000000     0.349765000000     0          
O        O      0.435600000000     0.750000000000     0.317260000000     0          
O        O      0.000000000000     0.714210000000     0.367325000000     0          
O        O      0.364215000000     0.750000000000     0.317670000000     0          
O        O      0.438325000000     0.700525000000     0.299475000000     0          
O        O      0.350040000000     0.710660000000     0.350040000000     0          
O        O      0.361695000000     0.700475000000     0.299525000000     0          
Si       Si     0.281060000000     0.569050000000     0.174955000000     0          
Si       Si     0.281125000000     0.630990000000     0.174870000000     0          
O        O      0.285710000000     0.600000000000     0.166720000000     0          
O        O      0.289005000000     0.549745000000     0.150235000000     0          
O        O      0.250000000000     0.564400000000     0.182740000000     0          
O        O      0.285790000000     0.500000000000     0.132675000000     0          
O        O      0.250000000000     0.635785000000     0.182330000000     0          
O        O      0.299475000000     0.561675000000     0.200525000000     0          
O        O      0.289340000000     0.649960000000     0.149960000000     0          
O        O      0.299525000000     0.638305000000     0.200475000000     0          
Si       Si     0.430950000000     0.781060000000     0.174955000000     0          
Si       Si     0.369010000000     0.781125000000     0.174870000000     0          
O        O      0.400000000000     0.785710000000     0.166720000000     0          
O        O      0.450255000000     0.789005000000     0.150235000000     0          
O        O      0.435600000000     0.750000000000     0.182740000000     0          
O        O      0.000000000000     0.785790000000     0.132675000000     0          
O        O      0.364215000000     0.750000000000     0.182330000000     0          
O        O      0.438325000000     0.799475000000     0.200525000000     0          
O        O      0.350040000000     0.789340000000     0.149960000000     0          
O        O      0.361695000000     0.799525000000     0.200475000000     0          
Si       Si     0.218940000000     0.930950000000     0.174955000000     0          
Si       Si     0.218875000000     0.869010000000     0.174870000000     0          
O        O      0.214290000000     0.900000000000     0.166720000000     0          
O        O      0.210995000000     0.950255000000     0.150235000000     0          
O        O      0.250000000000     0.935600000000     0.182740000000     0          
O        O      0.214210000000     0.500000000000     0.132675000000     0          
O        O      0.250000000000     0.864215000000     0.182330000000     0          
O        O      0.200525000000     0.938325000000     0.200525000000     0          
O        O      0.210660000000     0.850040000000     0.149960000000     0          
O        O      0.200475000000     0.861695000000     0.200475000000     0          
Si       Si     0.069050000000     0.718940000000     0.174955000000     0          
Si       Si     0.130990000000     0.718875000000     0.174870000000     0          
O        O      0.100000000000     0.714290000000     0.166720000000     0          
O        O      0.049745000000     0.710995000000     0.150235000000     0          
O        O      0.064400000000     0.750000000000     0.182740000000     0          
O        O      0.000000000000     0.714210000000     0.132675000000     0          
O        O      0.135785000000     0.750000000000     0.182330000000     0          
O        O      0.061675000000     0.700525000000     0.200525000000     0          
O        O      0.149960000000     0.710660000000     0.149960000000     0          
O        O      0.138305000000     0.700475000000     0.200475000000     0          
Si       Si     0.325045000000     0.781060000000     0.430950000000     0          
Si       Si     0.325130000000     0.781125000000     0.369010000000     0          
O        O      0.333280000000     0.785710000000     0.400000000000     0          
O        O      0.349765000000     0.789005000000     0.450255000000     0          
O        O      0.317260000000     0.750000000000     0.435600000000     0          
O        O      0.367325000000     0.785790000000     0.000000000000     0          
O        O      0.317670000000     0.750000000000     0.364215000000     0          
O        O      0.299475000000     0.799475000000     0.438325000000     0          
O        O      0.350040000000     0.789340000000     0.350040000000     0          
O        O      0.299525000000     0.799525000000     0.361695000000     0          
Si       Si     0.325045000000     0.718940000000     0.069050000000     0          
Si       Si     0.325130000000     0.718875000000     0.130990000000     0          
O        O      0.333280000000     0.714290000000     0.100000000000     0          
O        O      0.349765000000     0.710995000000     0.049745000000     0          
O        O      0.317260000000     0.750000000000     0.064400000000     0          
O        O      0.367325000000     0.714210000000     0.000000000000     0          
O        O      0.317670000000     0.750000000000     0.135785000000     0          
O        O      0.299475000000     0.700525000000     0.061675000000     0          
O        O      0.350040000000     0.710660000000     0.149960000000     0          
O        O      0.299525000000     0.700475000000     0.138305000000     0          
Si       Si     0.281060000000     0.825045000000     0.069050000000     0          
Si       Si     0.281125000000     0.825130000000     0.130990000000     0          
O        O      0.285710000000     0.833280000000     0.100000000000     0          
O        O      0.289005000000     0.849765000000     0.049745000000     0          
O        O      0.250000000000     0.817260000000     0.064400000000     0          
O        O      0.285790000000     0.867325000000     0.000000000000     0          
O        O      0.250000000000     0.817670000000     0.135785000000     0          
O        O      0.299475000000     0.799475000000     0.061675000000     0          
O        O      0.289340000000     0.850040000000     0.149960000000     0          
O        O      0.299525000000     0.799525000000     0.138305000000     0          
Si       Si     0.174955000000     0.781060000000     0.069050000000     0          
Si       Si     0.174870000000     0.781125000000     0.130990000000     0          
O        O      0.166720000000     0.785710000000     0.100000000000     0          
O        O      0.150235000000     0.789005000000     0.049745000000     0          
O        O      0.182740000000     0.750000000000     0.064400000000     0          
O        O      0.132675000000     0.785790000000     0.000000000000     0          
O        O      0.182330000000     0.750000000000     0.135785000000     0          
O        O      0.200525000000     0.799475000000     0.061675000000     0          
O        O      0.149960000000     0.789340000000     0.149960000000     0          
O        O      0.200475000000     0.799525000000     0.138305000000     0          
Si       Si     0.218940000000     0.674955000000     0.069050000000     0          
Si       Si     0.218875000000     0.674870000000     0.130990000000     0          
O        O      0.214290000000     0.666720000000     0.100000000000     0          
O        O      0.210995000000     0.650235000000     0.049745000000     0          
O        O      0.250000000000     0.682740000000     0.064400000000     0          
O        O      0.214210000000     0.632675000000     0.000000000000     0          
O        O      0.250000000000     0.682330000000     0.135785000000     0          
O        O      0.200525000000     0.700525000000     0.061675000000     0          
O        O      0.210660000000     0.649960000000     0.149960000000     0          
O        O      0.200475000000     0.700475000000     0.138305000000     0          
Si       Si     0.174955000000     0.718940000000     0.430950000000     0          
Si       Si     0.174870000000     0.718875000000     0.369010000000     0          
O        O      0.166720000000     0.714290000000     0.400000000000     0          
O        O      0.150235000000     0.710995000000     0.450255000000     0          
O        O      0.182740000000     0.750000000000     0.435600000000     0          
O        O      0.132675000000     0.714210000000     0.000000000000     0          
O        O      0.182330000000     0.750000000000     0.364215000000     0          
O        O      0.200525000000     0.700525000000     0.438325000000     0          
O        O      0.149960000000     0.710660000000     0.350040000000     0          
O        O      0.200475000000     0.700475000000     0.361695000000     0          
Si       Si     0.281060000000     0.674955000000     0.430950000000     0          
Si       Si     0.281125000000     0.674870000000     0.369010000000     0          
O        O      0.285710000000     0.666720000000     0.400000000000     0          
O        O      0.289005000000     0.650235000000     0.450255000000     0          
O        O      0.250000000000     0.682740000000     0.435600000000     0          
O        O      0.285790000000     0.632675000000     0.000000000000     0          
O        O      0.250000000000     0.682330000000     0.364215000000     0          
O        O      0.299475000000     0.700525000000     0.438325000000     0          
O        O      0.289340000000     0.649960000000     0.350040000000     0          
O        O      0.299525000000     0.700475000000     0.361695000000     0          
Si       Si     0.218940000000     0.825045000000     0.430950000000     0          
Si       Si     0.218875000000     0.825130000000     0.369010000000     0          
O        O      0.214290000000     0.833280000000     0.400000000000     0          
O        O      0.210995000000     0.849765000000     0.450255000000     0          
O        O      0.250000000000     0.817260000000     0.435600000000     0          
O        O      0.214210000000     0.867325000000     0.000000000000     0          
O        O      0.250000000000     0.817670000000     0.364215000000     0          
O        O      0.200525000000     0.799475000000     0.438325000000     0          
O        O      0.210660000000     0.850040000000     0.350040000000     0          
O        O      0.200475000000     0.799525000000     0.361695000000     0          
Si       Si     0.069050000000     0.674955000000     0.218940000000     0          
Si       Si     0.130990000000     0.674870000000     0.218875000000     0          
O        O      0.100000000000     0.666720000000     0.214290000000     0          
O        O      0.049745000000     0.650235000000     0.210995000000     0          
Si       Si     0.325045000000     0.569050000000     0.218940000000     0          
Si       Si     0.325130000000     0.630990000000     0.218875000000     0          
O        O      0.333280000000     0.600000000000     0.214290000000     0          
O        O      0.349765000000     0.549745000000     0.210995000000     0          
Si       Si     0.430950000000     0.825045000000     0.218940000000     0          
Si       Si     0.369010000000     0.825130000000     0.218875000000     0          
O        O      0.400000000000     0.833280000000     0.214290000000     0          
O        O      0.450255000000     0.849765000000     0.210995000000     0          
Si       Si     0.174955000000     0.930950000000     0.218940000000     0          
Si       Si     0.174870000000     0.869010000000     0.218875000000     0          
O        O      0.166720000000     0.900000000000     0.214290000000     0          
O        O      0.150235000000     0.950255000000     0.210995000000     0          
Si       Si     0.069050000000     0.825045000000     0.281060000000     0          
Si       Si     0.130990000000     0.825130000000     0.281125000000     0          
O        O      0.100000000000     0.833280000000     0.285710000000     0          
O        O      0.049745000000     0.849765000000     0.289005000000     0          
Si       Si     0.174955000000     0.569050000000     0.281060000000     0          
Si       Si     0.174870000000     0.630990000000     0.281125000000     0          
O        O      0.166720000000     0.600000000000     0.285710000000     0          
O        O      0.150235000000     0.549745000000     0.289005000000     0          
Si       Si     0.430950000000     0.674955000000     0.281060000000     0          
Si       Si     0.369010000000     0.674870000000     0.281125000000     0          
O        O      0.400000000000     0.666720000000     0.285710000000     0          
O        O      0.450255000000     0.650235000000     0.289005000000     0          
Si       Si     0.325045000000     0.930950000000     0.281060000000     0          
Si       Si     0.325130000000     0.869010000000     0.281125000000     0          
O        O      0.333280000000     0.900000000000     0.285710000000     0          
O        O      0.349765000000     0.950255000000     0.289005000000     0          
Si       Si     0.218940000000     0.569050000000     0.174955000000     0          
Si       Si     0.218875000000     0.630990000000     0.174870000000     0          
O        O      0.214290000000     0.600000000000     0.166720000000     0          
O        O      0.210995000000     0.549745000000     0.150235000000     0          
Si       Si     0.430950000000     0.718940000000     0.174955000000     0          
Si       Si     0.369010000000     0.718875000000     0.174870000000     0          
O        O      0.400000000000     0.714290000000     0.166720000000     0          
O        O      0.450255000000     0.710995000000     0.150235000000     0          
Si       Si     0.281060000000     0.930950000000     0.174955000000     0          
Si       Si     0.281125000000     0.869010000000     0.174870000000     0          
O        O      0.285710000000     0.900000000000     0.166720000000     0          
O        O      0.289005000000     0.950255000000     0.150235000000     0          
Si       Si     0.069050000000     0.781060000000     0.174955000000     0          
Si       Si     0.130990000000     0.781125000000     0.174870000000     0          
O        O      0.100000000000     0.785710000000     0.166720000000     0          
O        O      0.049745000000     0.789005000000     0.150235000000     0          
Si       Si     0.218940000000     0.930950000000     0.325045000000     0          
Si       Si     0.218875000000     0.869010000000     0.325130000000     0          
O        O      0.214290000000     0.900000000000     0.333280000000     0          
O        O      0.210995000000     0.950255000000     0.349765000000     0          
Si       Si     0.069050000000     0.718940000000     0.325045000000     0          
Si       Si     0.130990000000     0.718875000000     0.325130000000     0          
O        O      0.100000000000     0.714290000000     0.333280000000     0          
O        O      0.049745000000     0.710995000000     0.349765000000     0          
Si       Si     0.281060000000     0.569050000000     0.325045000000     0          
Si       Si     0.281125000000     0.630990000000     0.325130000000     0          
O        O      0.285710000000     0.600000000000     0.333280000000     0          
O        O      0.289005000000     0.549745000000     0.349765000000     0          
Si       Si     0.430950000000     0.781060000000     0.325045000000     0          
Si       Si     0.369010000000     0.781125000000     0.325130000000     0          
O        O      0.400000000000     0.785710000000     0.333280000000     0          
O        O      0.450255000000     0.789005000000     0.349765000000     0          
Si       Si     0.174955000000     0.718940000000     0.069050000000     0          
Si       Si     0.174870000000     0.718875000000     0.130990000000     0          
O        O      0.166720000000     0.714290000000     0.100000000000     0          
O        O      0.150235000000     0.710995000000     0.049745000000     0          
Si       Si     0.174955000000     0.781060000000     0.430950000000     0          
Si       Si     0.174870000000     0.781125000000     0.369010000000     0          
O        O      0.166720000000     0.785710000000     0.400000000000     0          
O        O      0.150235000000     0.789005000000     0.450255000000     0          
Si       Si     0.218940000000     0.674955000000     0.430950000000     0          
Si       Si     0.218875000000     0.674870000000     0.369010000000     0          
O        O      0.214290000000     0.666720000000     0.400000000000     0          
O        O      0.210995000000     0.650235000000     0.450255000000     0          
Si       Si     0.325045000000     0.718940000000     0.430950000000     0          
Si       Si     0.325130000000     0.718875000000     0.369010000000     0          
O        O      0.333280000000     0.714290000000     0.400000000000     0          
O        O      0.349765000000     0.710995000000     0.450255000000     0          
Si       Si     0.281060000000     0.825045000000     0.430950000000     0          
Si       Si     0.281125000000     0.825130000000     0.369010000000     0          
O        O      0.285710000000     0.833280000000     0.400000000000     0          
O        O      0.289005000000     0.849765000000     0.450255000000     0          
Si       Si     0.325045000000     0.781060000000     0.069050000000     0          
Si       Si     0.325130000000     0.781125000000     0.130990000000     0          
O        O      0.333280000000     0.785710000000     0.100000000000     0          
O        O      0.349765000000     0.789005000000     0.049745000000     0          
Si       Si     0.218940000000     0.825045000000     0.069050000000     0          
Si       Si     0.218875000000     0.825130000000     0.130990000000     0          
O        O      0.214290000000     0.833280000000     0.100000000000     0          
O        O      0.210995000000     0.849765000000     0.049745000000     0          
Si       Si     0.281060000000     0.674955000000     0.069050000000     0          
Si       Si     0.281125000000     0.674870000000     0.130990000000     0          
O        O      0.285710000000     0.666720000000     0.100000000000     0          
O        O      0.289005000000     0.650235000000     0.049745000000     0          
Si       Si     0.180950000000     0.575045000000     0.531060000000     0          
Si       Si     0.119010000000     0.575130000000     0.531125000000     0          
Si       Si     0.218915000000     0.625000000000     0.531085000000     0          
O        O      0.150000000000     0.583280000000     0.535710000000     0          
O        O      0.200255000000     0.599765000000     0.539005000000     0          
O        O      0.185600000000     0.567260000000     0.500000000000     0          
O        O      0.250000000000     0.617325000000     0.535790000000     0          
O        O      0.114215000000     0.567670000000     0.500000000000     0          
O        O      0.188325000000     0.549475000000     0.549475000000     0          
O        O      0.100040000000     0.600040000000     0.539340000000     0          
O        O      0.111695000000     0.549525000000     0.549525000000     0          
Si       Si     0.424955000000     0.680950000000     0.531060000000     0          
Si       Si     0.424870000000     0.619010000000     0.531125000000     0          
Si       Si     0.375000000000     0.718915000000     0.531085000000     0          
O        O      0.416720000000     0.650000000000     0.535710000000     0          
O        O      0.400235000000     0.700255000000     0.539005000000     0          
O        O      0.432740000000     0.685600000000     0.500000000000     0          
O        O      0.382675000000     0.750000000000     0.535790000000     0          
O        O      0.432330000000     0.614215000000     0.500000000000     0          
O        O      0.450525000000     0.688325000000     0.549475000000     0          
O        O      0.399960000000     0.600040000000     0.539340000000     0          
O        O      0.450475000000     0.611695000000     0.549525000000     0          
Si       Si     0.319050000000     0.924955000000     0.531060000000     0          
Si       Si     0.380990000000     0.924870000000     0.531125000000     0          
Si       Si     0.281085000000     0.875000000000     0.531085000000     0          
O        O      0.350000000000     0.916720000000     0.535710000000     0          
O        O      0.299745000000     0.900235000000     0.539005000000     0          
O        O      0.314400000000     0.932740000000     0.500000000000     0          
O        O      0.250000000000     0.882675000000     0.535790000000     0          
O        O      0.385785000000     0.932330000000     0.500000000000     0          
O        O      0.311675000000     0.950525000000     0.549475000000     0          
O        O      0.399960000000     0.899960000000     0.539340000000     0          
O        O      0.388305000000     0.950475000000     0.549525000000     0          
Si       Si     0.075045000000     0.819050000000     0.531060000000     0          
Si       Si     0.075130000000     0.880990000000     0.531125000000     0          
Si       Si     0.125000000000     0.781085000000     0.531085000000     0          
O        O      0.083280000000     0.850000000000     0.535710000000     0          
O        O      0.099765000000     0.799745000000     0.539005000000     0          
O        O      0.067260000000     0.814400000000     0.500000000000     0          
O        O      0.117325000000     0.750000000000     0.535790000000     0          
O        O      0.067670000000     0.885785000000     0.500000000000     0          
O        O      0.049475000000     0.811675000000     0.549475000000     0          
O        O      0.100040000000     0.899960000000     0.539340000000     0          
O        O      0.049525000000     0.888305000000     0.549525000000     0          
Si       Si     0.180950000000     0.924955000000     0.968940000000     0          
Si       Si     0.119010000000     0.924870000000     0.968875000000     0          
Si       Si     0.218915000000     0.875000000000     0.968915000000     0          
O        O      0.150000000000     0.916720000000     0.964290000000     0          
O        O      0.200255000000     0.900235000000     0.960995000000     0          
O        O      0.185600000000     0.932740000000     0.500000000000     0          
O        O      0.250000000000     0.882675000000     0.964210000000     0          
O        O      0.114215000000     0.932330000000     0.500000000000     0          
O        O      0.188325000000     0.950525000000     0.950525000000     0          
O        O      0.100040000000     0.899960000000     0.960660000000     0          
O        O      0.111695000000     0.950475000000     0.950475000000     0          
Si       Si     0.075045000000     0.680950000000     0.968940000000     0          
Si       Si     0.075130000000     0.619010000000     0.968875000000     0          
Si       Si     0.125000000000     0.718915000000     0.968915000000     0          
O        O      0.083280000000     0.650000000000     0.964290000000     0          
O        O      0.099765000000     0.700255000000     0.960995000000     0          
O        O      0.067260000000     0.685600000000     0.500000000000     0          
O        O      0.117325000000     0.750000000000     0.964210000000     0          
O        O      0.067670000000     0.614215000000     0.500000000000     0          
O        O      0.049475000000     0.688325000000     0.950525000000     0          
O        O      0.100040000000     0.600040000000     0.960660000000     0          
O        O      0.049525000000     0.611695000000     0.950475000000     0          
Si       Si     0.319050000000     0.575045000000     0.968940000000     0          
Si       Si     0.380990000000     0.575130000000     0.968875000000     0          
Si       Si     0.281085000000     0.625000000000     0.968915000000     0          
O        O      0.350000000000     0.583280000000     0.964290000000     0          
O        O      0.299745000000     0.599765000000     0.960995000000     0          
O        O      0.314400000000     0.567260000000     0.500000000000     0          
O        O      0.250000000000     0.617325000000     0.964210000000     0          
O        O      0.385785000000     0.567670000000     0.500000000000     0          
O        O      0.311675000000     0.549475000000     0.950525000000     0          
O        O      0.399960000000     0.600040000000     0.960660000000     0          
O        O      0.388305000000     0.549525000000     0.950475000000     0          
Si       Si     0.424955000000     0.819050000000     0.968940000000     0          
Si       Si     0.424870000000     0.880990000000     0.968875000000     0          
Si       Si     0.375000000000     0.781085000000     0.968915000000     0          
O        O      0.416720000000     0.850000000000     0.964290000000     0          
O        O      0.400235000000     0.799745000000     0.960995000000     0          
O        O      0.432740000000     0.814400000000     0.500000000000     0          
O        O      0.382675000000     0.750000000000     0.964210000000     0          
O        O      0.432330000000     0.885785000000     0.500000000000     0          
O        O      0.450525000000     0.811675000000     0.950525000000     0          
O        O      0.399960000000     0.899960000000     0.960660000000     0          
O        O      0.450475000000     0.888305000000     0.950475000000     0          
Si       Si     0.031060000000     0.680950000000     0.575045000000     0          
Si       Si     0.031125000000     0.619010000000     0.575130000000     0          
Si       Si     0.031085000000     0.718915000000     0.625000000000     0          
O        O      0.035710000000     0.650000000000     0.583280000000     0          
O        O      0.039005000000     0.700255000000     0.599765000000     0          
O        O      0.000000000000     0.685600000000     0.567260000000     0          
O        O      0.035790000000     0.750000000000     0.617325000000     0          
O        O      0.000000000000     0.614215000000     0.567670000000     0          
O        O      0.049475000000     0.688325000000     0.549475000000     0          
O        O      0.039340000000     0.600040000000     0.600040000000     0          
O        O      0.049525000000     0.611695000000     0.549525000000     0          
Si       Si     0.319050000000     0.531060000000     0.575045000000     0          
Si       Si     0.380990000000     0.531125000000     0.575130000000     0          
Si       Si     0.281085000000     0.531085000000     0.625000000000     0          
O        O      0.350000000000     0.535710000000     0.583280000000     0          
O        O      0.299745000000     0.539005000000     0.599765000000     0          
O        O      0.314400000000     0.500000000000     0.567260000000     0          
O        O      0.250000000000     0.535790000000     0.617325000000     0          
O        O      0.385785000000     0.500000000000     0.567670000000     0          
O        O      0.311675000000     0.549475000000     0.549475000000     0          
O        O      0.399960000000     0.539340000000     0.600040000000     0          
O        O      0.388305000000     0.549525000000     0.549525000000     0          
Si       Si     0.468940000000     0.819050000000     0.575045000000     0          
Si       Si     0.468875000000     0.880990000000     0.575130000000     0          
Si       Si     0.468915000000     0.781085000000     0.625000000000     0          
O        O      0.464290000000     0.850000000000     0.583280000000     0          
O        O      0.460995000000     0.799745000000     0.599765000000     0          
O        O      0.000000000000     0.814400000000     0.567260000000     0          
O        O      0.464210000000     0.750000000000     0.617325000000     0          
O        O      0.000000000000     0.885785000000     0.567670000000     0          
O        O      0.450525000000     0.811675000000     0.549475000000     0          
O        O      0.460660000000     0.899960000000     0.600040000000     0          
O        O      0.450475000000     0.888305000000     0.549525000000     0          
Si       Si     0.180950000000     0.968940000000     0.575045000000     0          
Si       Si     0.119010000000     0.968875000000     0.575130000000     0          
Si       Si     0.218915000000     0.968915000000     0.625000000000     0          
O        O      0.150000000000     0.964290000000     0.583280000000     0          
O        O      0.200255000000     0.960995000000     0.599765000000     0          
O        O      0.185600000000     0.500000000000     0.567260000000     0          
O        O      0.250000000000     0.964210000000     0.617325000000     0          
O        O      0.114215000000     0.500000000000     0.567670000000     0          
O        O      0.188325000000     0.950525000000     0.549475000000     0          
O        O      0.100040000000     0.960660000000     0.600040000000     0          
O        O      0.111695000000     0.950475000000     0.549525000000     0          
Si       Si     0.031060000000     0.819050000000     0.924955000000     0          
Si       Si     0.031125000000     0.880990000000     0.924870000000     0          
Si       Si     0.031085000000     0.781085000000     0.875000000000     0          
O        O      0.035710000000     0.850000000000     0.916720000000     0          
O        O      0.039005000000     0.799745000000     0.900235000000     0          
O        O      0.000000000000     0.814400000000     0.932740000000     0          
O        O      0.035790000000     0.750000000000     0.882675000000     0          
O        O      0.000000000000     0.885785000000     0.932330000000     0          
O        O      0.049475000000     0.811675000000     0.950525000000     0          
O        O      0.039340000000     0.899960000000     0.899960000000     0          
O        O      0.049525000000     0.888305000000     0.950475000000     0          
Si       Si     0.180950000000     0.531060000000     0.924955000000     0          
Si       Si     0.119010000000     0.531125000000     0.924870000000     0          
Si       Si     0.218915000000     0.531085000000     0.875000000000     0          
O        O      0.150000000000     0.535710000000     0.916720000000     0          
O        O      0.200255000000     0.539005000000     0.900235000000     0          
O        O      0.185600000000     0.500000000000     0.932740000000     0          
O        O      0.250000000000     0.535790000000     0.882675000000     0          
O        O      0.114215000000     0.500000000000     0.932330000000     0          
O        O      0.188325000000     0.549475000000     0.950525000000     0          
O        O      0.100040000000     0.539340000000     0.899960000000     0          
O        O      0.111695000000     0.549525000000     0.950475000000     0          
Si       Si     0.468940000000     0.680950000000     0.924955000000     0          
Si       Si     0.468875000000     0.619010000000     0.924870000000     0          
Si       Si     0.468915000000     0.718915000000     0.875000000000     0          
O        O      0.464290000000     0.650000000000     0.916720000000     0          
O        O      0.460995000000     0.700255000000     0.900235000000     0          
O        O      0.000000000000     0.685600000000     0.932740000000     0          
O        O      0.464210000000     0.750000000000     0.882675000000     0          
O        O      0.000000000000     0.614215000000     0.932330000000     0          
O        O      0.450525000000     0.688325000000     0.950525000000     0          
O        O      0.460660000000     0.600040000000     0.899960000000     0          
O        O      0.450475000000     0.611695000000     0.950475000000     0          
Si       Si     0.319050000000     0.968940000000     0.924955000000     0          
Si       Si     0.380990000000     0.968875000000     0.924870000000     0          
Si       Si     0.281085000000     0.968915000000     0.875000000000     0          
O        O      0.350000000000     0.964290000000     0.916720000000     0          
O        O      0.299745000000     0.960995000000     0.900235000000     0          
O        O      0.314400000000     0.500000000000     0.932740000000     0          
O        O      0.250000000000     0.964210000000     0.882675000000     0          
O        O      0.385785000000     0.500000000000     0.932330000000     0          
O        O      0.311675000000     0.950525000000     0.950525000000     0          
O        O      0.399960000000     0.960660000000     0.899960000000     0          
O        O      0.388305000000     0.950475000000     0.950475000000     0          
Si       Si     0.075045000000     0.531060000000     0.680950000000     0          
Si       Si     0.075130000000     0.531125000000     0.619010000000     0          
Si       Si     0.125000000000     0.531085000000     0.718915000000     0          
O        O      0.083280000000     0.535710000000     0.650000000000     0          
O        O      0.099765000000     0.539005000000     0.700255000000     0          
O        O      0.067260000000     0.500000000000     0.685600000000     0          
O        O      0.117325000000     0.535790000000     0.750000000000     0          
O        O      0.067670000000     0.500000000000     0.614215000000     0          
O        O      0.049475000000     0.549475000000     0.688325000000     0          
O        O      0.100040000000     0.539340000000     0.600040000000     0          
O        O      0.049525000000     0.549525000000     0.611695000000     0          
Si       Si     0.075045000000     0.968940000000     0.819050000000     0          
Si       Si     0.075130000000     0.968875000000     0.880990000000     0          
Si       Si     0.125000000000     0.968915000000     0.781085000000     0          
O        O      0.083280000000     0.964290000000     0.850000000000     0          
O        O      0.099765000000     0.960995000000     0.799745000000     0          
O        O      0.067260000000     0.500000000000     0.814400000000     0          
O        O      0.117325000000     0.964210000000     0.750000000000     0          
O        O      0.067670000000     0.500000000000     0.885785000000     0          
O        O      0.049475000000     0.950525000000     0.811675000000     0          
O        O      0.100040000000     0.960660000000     0.899960000000     0          
O        O      0.049525000000     0.950475000000     0.888305000000     0          
Si       Si     0.031060000000     0.575045000000     0.819050000000     0          
Si       Si     0.031125000000     0.575130000000     0.880990000000     0          
Si       Si     0.031085000000     0.625000000000     0.781085000000     0          
O        O      0.035710000000     0.583280000000     0.850000000000     0          
O        O      0.039005000000     0.599765000000     0.799745000000     0          
O        O      0.000000000000     0.567260000000     0.814400000000     0          
O        O      0.035790000000     0.617325000000     0.750000000000     0          
O        O      0.000000000000     0.567670000000     0.885785000000     0          
O        O      0.049475000000     0.549475000000     0.811675000000     0          
O        O      0.039340000000     0.600040000000     0.899960000000     0          
O        O      0.049525000000     0.549525000000     0.888305000000     0          
Si       Si     0.424955000000     0.531060000000     0.819050000000     0          
Si       Si     0.424870000000     0.531125000000     0.880990000000     0          
Si       Si     0.375000000000     0.531085000000     0.781085000000     0          
O        O      0.416720000000     0.535710000000     0.850000000000     0          
O        O      0.400235000000     0.539005000000     0.799745000000     0          
O        O      0.432740000000     0.500000000000     0.814400000000     0          
O        O      0.382675000000     0.535790000000     0.750000000000     0          
O        O      0.432330000000     0.500000000000     0.885785000000     0          
O        O      0.450525000000     0.549475000000     0.811675000000     0          
O        O      0.399960000000     0.539340000000     0.899960000000     0          
O        O      0.450475000000     0.549525000000     0.888305000000     0          
Si       Si     0.468940000000     0.924955000000     0.819050000000     0          
Si       Si     0.468875000000     0.924870000000     0.880990000000     0          
Si       Si     0.468915000000     0.875000000000     0.781085000000     0          
O        O      0.464290000000     0.916720000000     0.850000000000     0          
O        O      0.460995000000     0.900235000000     0.799745000000     0          
O        O      0.000000000000     0.932740000000     0.814400000000     0          
O        O      0.464210000000     0.882675000000     0.750000000000     0          
O        O      0.000000000000     0.932330000000     0.885785000000     0          
O        O      0.450525000000     0.950525000000     0.811675000000     0          
O        O      0.460660000000     0.899960000000     0.899960000000     0          
O        O      0.450475000000     0.950475000000     0.888305000000     0          
Si       Si     0.424955000000     0.968940000000     0.680950000000     0          
Si       Si     0.424870000000     0.968875000000     0.619010000000     0          
Si       Si     0.375000000000     0.968915000000     0.718915000000     0          
O        O      0.416720000000     0.964290000000     0.650000000000     0          
O        O      0.400235000000     0.960995000000     0.700255000000     0          
O        O      0.432740000000     0.500000000000     0.685600000000     0          
O        O      0.382675000000     0.964210000000     0.750000000000     0          
O        O      0.432330000000     0.500000000000     0.614215000000     0          
O        O      0.450525000000     0.950525000000     0.688325000000     0          
O        O      0.399960000000     0.960660000000     0.600040000000     0          
O        O      0.450475000000     0.950475000000     0.611695000000     0          
Si       Si     0.031060000000     0.924955000000     0.680950000000     0          
Si       Si     0.031125000000     0.924870000000     0.619010000000     0          
Si       Si     0.031085000000     0.875000000000     0.718915000000     0          
O        O      0.035710000000     0.916720000000     0.650000000000     0          
O        O      0.039005000000     0.900235000000     0.700255000000     0          
O        O      0.000000000000     0.932740000000     0.685600000000     0          
O        O      0.035790000000     0.882675000000     0.750000000000     0          
O        O      0.000000000000     0.932330000000     0.614215000000     0          
O        O      0.049475000000     0.950525000000     0.688325000000     0          
O        O      0.039340000000     0.899960000000     0.600040000000     0          
O        O      0.049525000000     0.950475000000     0.611695000000     0          
Si       Si     0.468940000000     0.575045000000     0.680950000000     0          
Si       Si     0.468875000000     0.575130000000     0.619010000000     0          
Si       Si     0.468915000000     0.625000000000     0.718915000000     0          
O        O      0.464290000000     0.583280000000     0.650000000000     0          
O        O      0.460995000000     0.599765000000     0.700255000000     0          
O        O      0.000000000000     0.567260000000     0.685600000000     0          
O        O      0.464210000000     0.617325000000     0.750000000000     0          
O        O      0.000000000000     0.567670000000     0.614215000000     0          
O        O      0.450525000000     0.549475000000     0.688325000000     0          
O        O      0.460660000000     0.600040000000     0.600040000000     0          
O        O      0.450475000000     0.549525000000     0.611695000000     0          
Si       Si     0.319050000000     0.924955000000     0.968940000000     0          
Si       Si     0.380990000000     0.924870000000     0.968875000000     0          
Si       Si     0.281085000000     0.875000000000     0.968915000000     0          
O        O      0.350000000000     0.916720000000     0.964290000000     0          
O        O      0.299745000000     0.900235000000     0.960995000000     0          
Si       Si     0.075045000000     0.819050000000     0.968940000000     0          
Si       Si     0.075130000000     0.880990000000     0.968875000000     0          
Si       Si     0.125000000000     0.781085000000     0.968915000000     0          
O        O      0.083280000000     0.850000000000     0.964290000000     0          
O        O      0.099765000000     0.799745000000     0.960995000000     0          
Si       Si     0.180950000000     0.575045000000     0.968940000000     0          
Si       Si     0.119010000000     0.575130000000     0.968875000000     0          
Si       Si     0.218915000000     0.625000000000     0.968915000000     0          
O        O      0.150000000000     0.583280000000     0.964290000000     0          
O        O      0.200255000000     0.599765000000     0.960995000000     0          
Si       Si     0.424955000000     0.680950000000     0.968940000000     0          
Si       Si     0.424870000000     0.619010000000     0.968875000000     0          
Si       Si     0.375000000000     0.718915000000     0.968915000000     0          
O        O      0.416720000000     0.650000000000     0.964290000000     0          
O        O      0.400235000000     0.700255000000     0.960995000000     0          
Si       Si     0.319050000000     0.575045000000     0.531060000000     0          
Si       Si     0.380990000000     0.575130000000     0.531125000000     0          
Si       Si     0.281085000000     0.625000000000     0.531085000000     0          
O        O      0.350000000000     0.583280000000     0.535710000000     0          
O        O      0.299745000000     0.599765000000     0.539005000000     0          
Si       Si     0.424955000000     0.819050000000     0.531060000000     0          
Si       Si     0.424870000000     0.880990000000     0.531125000000     0          
Si       Si     0.375000000000     0.781085000000     0.531085000000     0          
O        O      0.416720000000     0.850000000000     0.535710000000     0          
O        O      0.400235000000     0.799745000000     0.539005000000     0          
Si       Si     0.180950000000     0.924955000000     0.531060000000     0          
Si       Si     0.119010000000     0.924870000000     0.531125000000     0          
Si       Si     0.218915000000     0.875000000000     0.531085000000     0          
O        O      0.150000000000     0.916720000000     0.535710000000     0          
O        O      0.200255000000     0.900235000000     0.539005000000     0          
Si       Si     0.075045000000     0.680950000000     0.531060000000     0          
Si       Si     0.075130000000     0.619010000000     0.531125000000     0          
Si       Si     0.125000000000     0.718915000000     0.531085000000     0          
O        O      0.083280000000     0.650000000000     0.535710000000     0          
O        O      0.099765000000     0.700255000000     0.539005000000     0          
Si       Si     0.468940000000     0.819050000000     0.924955000000     0          
Si       Si     0.468875000000     0.880990000000     0.924870000000     0          
Si       Si     0.468915000000     0.781085000000     0.875000000000     0          
O        O      0.464290000000     0.850000000000     0.916720000000     0          
O        O      0.460995000000     0.799745000000     0.900235000000     0          
Si       Si     0.180950000000     0.968940000000     0.924955000000     0          
Si       Si     0.119010000000     0.968875000000     0.924870000000     0          
Si       Si     0.218915000000     0.968915000000     0.875000000000     0          
O        O      0.150000000000     0.964290000000     0.916720000000     0          
O        O      0.200255000000     0.960995000000     0.900235000000     0          
Si       Si     0.031060000000     0.680950000000     0.924955000000     0          
Si       Si     0.031125000000     0.619010000000     0.924870000000     0          
Si       Si     0.031085000000     0.718915000000     0.875000000000     0          
O        O      0.035710000000     0.650000000000     0.916720000000     0          
O        O      0.039005000000     0.700255000000     0.900235000000     0          
Si       Si     0.319050000000     0.531060000000     0.924955000000     0          
Si       Si     0.380990000000     0.531125000000     0.924870000000     0          
Si       Si     0.281085000000     0.531085000000     0.875000000000     0          
O        O      0.350000000000     0.535710000000     0.916720000000     0          
O        O      0.299745000000     0.539005000000     0.900235000000     0          
Si       Si     0.468940000000     0.680950000000     0.575045000000     0          
Si       Si     0.468875000000     0.619010000000     0.575130000000     0          
Si       Si     0.468915000000     0.718915000000     0.625000000000     0          
O        O      0.464290000000     0.650000000000     0.583280000000     0          
O        O      0.460995000000     0.700255000000     0.599765000000     0          
Si       Si     0.319050000000     0.968940000000     0.575045000000     0          
Si       Si     0.380990000000     0.968875000000     0.575130000000     0          
Si       Si     0.281085000000     0.968915000000     0.625000000000     0          
O        O      0.350000000000     0.964290000000     0.583280000000     0          
O        O      0.299745000000     0.960995000000     0.599765000000     0          
Si       Si     0.031060000000     0.819050000000     0.575045000000     0          
Si       Si     0.031125000000     0.880990000000     0.575130000000     0          
Si       Si     0.031085000000     0.781085000000     0.625000000000     0          
O        O      0.035710000000     0.850000000000     0.583280000000     0          
O        O      0.039005000000     0.799745000000     0.599765000000     0          
Si       Si     0.180950000000     0.531060000000     0.575045000000     0          
Si       Si     0.119010000000     0.531125000000     0.575130000000     0          
Si       Si     0.218915000000     0.531085000000     0.625000000000     0          
O        O      0.150000000000     0.535710000000     0.583280000000     0          
O        O      0.200255000000     0.539005000000     0.599765000000     0          
Si       Si     0.424955000000     0.968940000000     0.819050000000     0          
Si       Si     0.424870000000     0.968875000000     0.880990000000     0          
Si       Si     0.375000000000     0.968915000000     0.781085000000     0          
O        O      0.416720000000     0.964290000000     0.850000000000     0          
O        O      0.400235000000     0.960995000000     0.799745000000     0          
Si       Si     0.424955000000     0.531060000000     0.680950000000     0          
Si       Si     0.424870000000     0.531125000000     0.619010000000     0          
Si       Si     0.375000000000     0.531085000000     0.718915000000     0          
O        O      0.416720000000     0.535710000000     0.650000000000     0          
O        O      0.400235000000     0.539005000000     0.700255000000     0          
Si       Si     0.468940000000     0.924955000000     0.680950000000     0          
Si       Si     0.468875000000     0.924870000000     0.619010000000     0          
Si       Si     0.468915000000     0.875000000000     0.718915000000     0          
O        O      0.464290000000     0.916720000000     0.650000000000     0          
O        O      0.460995000000     0.900235000000     0.700255000000     0          
Si       Si     0.075045000000     0.968940000000     0.680950000000     0          
Si       Si     0.075130000000     0.968875000000     0.619010000000     0          
Si       Si     0.125000000000     0.968915000000     0.718915000000     0          
O        O      0.083280000000     0.964290000000     0.650000000000     0          
O        O      0.099765000000     0.960995000000     0.700255000000     0          
Si       Si     0.031060000000     0.575045000000     0.680950000000     0          
Si       Si     0.031125000000     0.575130000000     0.619010000000     0          
Si       Si     0.031085000000     0.625000000000     0.718915000000     0          
O        O      0.035710000000     0.583280000000     0.650000000000     0          
O        O      0.039005000000     0.599765000000     0.700255000000     0          
Si       Si     0.075045000000     0.531060000000     0.819050000000     0          
Si       Si     0.075130000000     0.531125000000     0.880990000000     0          
Si       Si     0.125000000000     0.531085000000     0.781085000000     0          
O        O      0.083280000000     0.535710000000     0.850000000000     0          
O        O      0.099765000000     0.539005000000     0.799745000000     0          
Si       Si     0.468940000000     0.575045000000     0.819050000000     0          
Si       Si     0.468875000000     0.575130000000     0.880990000000     0          
Si       Si     0.468915000000     0.625000000000     0.781085000000     0          
O        O      0.464290000000     0.583280000000     0.850000000000     0          
O        O      0.460995000000     0.599765000000     0.799745000000     0          
Si       Si     0.031060000000     0.924955000000     0.819050000000     0          
Si       Si     0.031125000000     0.924870000000     0.880990000000     0          
Si       Si     0.031085000000     0.875000000000     0.781085000000     0          
O        O      0.035710000000     0.916720000000     0.850000000000     0          
O        O      0.039005000000     0.900235000000     0.799745000000     0          
Si       Si     0.430950000000     0.825045000000     0.781060000000     0          
Si       Si     0.369010000000     0.825130000000     0.781125000000     0          
O        O      0.400000000000     0.833280000000     0.785710000000     0          
O        O      0.450255000000     0.849765000000     0.789005000000     0          
O        O      0.435600000000     0.817260000000     0.750000000000     0          
O        O      0.000000000000     0.867325000000     0.785790000000     0          
O        O      0.364215000000     0.817670000000     0.750000000000     0          
O        O      0.438325000000     0.799475000000     0.799475000000     0          
O        O      0.350040000000     0.850040000000     0.789340000000     0          
O        O      0.361695000000     0.799525000000     0.799525000000     0          
Si       Si     0.174955000000     0.930950000000     0.781060000000     0          
Si       Si     0.174870000000     0.869010000000     0.781125000000     0          
O        O      0.166720000000     0.900000000000     0.785710000000     0          
O        O      0.150235000000     0.950255000000     0.789005000000     0          
O        O      0.182740000000     0.935600000000     0.750000000000     0          
O        O      0.132675000000     0.500000000000     0.785790000000     0          
O        O      0.182330000000     0.864215000000     0.750000000000     0          
O        O      0.200525000000     0.938325000000     0.799475000000     0          
O        O      0.149960000000     0.850040000000     0.789340000000     0          
O        O      0.200475000000     0.861695000000     0.799525000000     0          
Si       Si     0.069050000000     0.674955000000     0.781060000000     0          
Si       Si     0.130990000000     0.674870000000     0.781125000000     0          
O        O      0.100000000000     0.666720000000     0.785710000000     0          
O        O      0.049745000000     0.650235000000     0.789005000000     0          
O        O      0.064400000000     0.682740000000     0.750000000000     0          
O        O      0.000000000000     0.632675000000     0.785790000000     0          
O        O      0.135785000000     0.682330000000     0.750000000000     0          
O        O      0.061675000000     0.700525000000     0.799475000000     0          
O        O      0.149960000000     0.649960000000     0.789340000000     0          
O        O      0.138305000000     0.700475000000     0.799525000000     0          
Si       Si     0.325045000000     0.569050000000     0.781060000000     0          
Si       Si     0.325130000000     0.630990000000     0.781125000000     0          
O        O      0.333280000000     0.600000000000     0.785710000000     0          
O        O      0.349765000000     0.549745000000     0.789005000000     0          
O        O      0.317260000000     0.564400000000     0.750000000000     0          
O        O      0.367325000000     0.500000000000     0.785790000000     0          
O        O      0.317670000000     0.635785000000     0.750000000000     0          
O        O      0.299475000000     0.561675000000     0.799475000000     0          
O        O      0.350040000000     0.649960000000     0.789340000000     0          
O        O      0.299525000000     0.638305000000     0.799525000000     0          
Si       Si     0.430950000000     0.674955000000     0.718940000000     0          
Si       Si     0.369010000000     0.674870000000     0.718875000000     0          
O        O      0.400000000000     0.666720000000     0.714290000000     0          
O        O      0.450255000000     0.650235000000     0.710995000000     0          
O        O      0.435600000000     0.682740000000     0.750000000000     0          
O        O      0.000000000000     0.632675000000     0.714210000000     0          
O        O      0.364215000000     0.682330000000     0.750000000000     0          
O        O      0.438325000000     0.700525000000     0.700525000000     0          
O        O      0.350040000000     0.649960000000     0.710660000000     0          
O        O      0.361695000000     0.700475000000     0.700475000000     0          
Si       Si     0.325045000000     0.930950000000     0.718940000000     0          
Si       Si     0.325130000000     0.869010000000     0.718875000000     0          
O        O      0.333280000000     0.900000000000     0.714290000000     0          
O        O      0.349765000000     0.950255000000     0.710995000000     0          
O        O      0.317260000000     0.935600000000     0.750000000000     0          
O        O      0.367325000000     0.500000000000     0.714210000000     0          
O        O      0.317670000000     0.864215000000     0.750000000000     0          
O        O      0.299475000000     0.938325000000     0.700525000000     0          
O        O      0.350040000000     0.850040000000     0.710660000000     0          
O        O      0.299525000000     0.861695000000     0.700475000000     0          
Si       Si     0.069050000000     0.825045000000     0.718940000000     0          
Si       Si     0.130990000000     0.825130000000     0.718875000000     0          
O        O      0.100000000000     0.833280000000     0.714290000000     0          
O        O      0.049745000000     0.849765000000     0.710995000000     0          
O        O      0.064400000000     0.817260000000     0.750000000000     0          
O        O      0.000000000000     0.867325000000     0.714210000000     0          
O        O      0.135785000000     0.817670000000     0.750000000000     0          
O        O      0.061675000000     0.799475000000     0.700525000000     0          
O        O      0.149960000000     0.850040000000     0.710660000000     0          
O        O      0.138305000000     0.799525000000     0.700475000000     0          
Si       Si     0.174955000000     0.569050000000     0.718940000000     0          
Si       Si     0.174870000000     0.630990000000     0.718875000000     0          
O        O      0.166720000000     0.600000000000     0.714290000000     0          
O        O      0.150235000000     0.549745000000     0.710995000000     0          
O        O      0.182740000000     0.564400000000     0.750000000000     0          
O        O      0.132675000000     0.500000000000     0.714210000000     0          
O        O      0.182330000000     0.635785000000     0.750000000000     0          
O        O      0.200525000000     0.561675000000     0.700525000000     0          
O        O      0.149960000000     0.649960000000     0.710660000000     0          
O        O      0.200475000000     0.638305000000     0.700475000000     0          
Si       Si     0.281060000000     0.930950000000     0.825045000000     0          
Si       Si     0.281125000000     0.869010000000     0.825130000000     0          
O        O      0.285710000000     0.900000000000     0.833280000000     0          
O        O      0.289005000000     0.950255000000     0.849765000000     0          
O        O      0.250000000000     0.935600000000     0.817260000000     0          
O        O      0.285790000000     0.500000000000     0.867325000000     0          
O        O      0.250000000000     0.864215000000     0.817670000000     0          
O        O      0.299475000000     0.938325000000     0.799475000000     0          
O        O      0.289340000000     0.850040000000     0.850040000000     0          
O        O      0.299525000000     0.861695000000     0.799525000000     0          
Si       Si     0.069050000000     0.781060000000     0.825045000000     0          
Si       Si     0.130990000000     0.781125000000     0.825130000000     0          
O        O      0.100000000000     0.785710000000     0.833280000000     0          
O        O      0.049745000000     0.789005000000     0.849765000000     0          
O        O      0.064400000000     0.750000000000     0.817260000000     0          
O        O      0.000000000000     0.785790000000     0.867325000000     0          
O        O      0.135785000000     0.750000000000     0.817670000000     0          
O        O      0.061675000000     0.799475000000     0.799475000000     0          
O        O      0.149960000000     0.789340000000     0.850040000000     0          
O        O      0.138305000000     0.799525000000     0.799525000000     0          
Si       Si     0.218940000000     0.569050000000     0.825045000000     0          
Si       Si     0.218875000000     0.630990000000     0.825130000000     0          
O        O      0.214290000000     0.600000000000     0.833280000000     0          
O        O      0.210995000000     0.549745000000     0.849765000000     0          
O        O      0.250000000000     0.564400000000     0.817260000000     0          
O        O      0.214210000000     0.500000000000     0.867325000000     0          
O        O      0.250000000000     0.635785000000     0.817670000000     0          
O        O      0.200525000000     0.561675000000     0.799475000000     0          
O        O      0.210660000000     0.649960000000     0.850040000000     0          
O        O      0.200475000000     0.638305000000     0.799525000000     0          
Si       Si     0.430950000000     0.718940000000     0.825045000000     0          
Si       Si     0.369010000000     0.718875000000     0.825130000000     0          
O        O      0.400000000000     0.714290000000     0.833280000000     0          
O        O      0.450255000000     0.710995000000     0.849765000000     0          
O        O      0.435600000000     0.750000000000     0.817260000000     0          
O        O      0.000000000000     0.714210000000     0.867325000000     0          
O        O      0.364215000000     0.750000000000     0.817670000000     0          
O        O      0.438325000000     0.700525000000     0.799475000000     0          
O        O      0.350040000000     0.710660000000     0.850040000000     0          
O        O      0.361695000000     0.700475000000     0.799525000000     0          
Si       Si     0.281060000000     0.569050000000     0.674955000000     0          
Si       Si     0.281125000000     0.630990000000     0.674870000000     0          
O        O      0.285710000000     0.600000000000     0.666720000000     0          
O        O      0.289005000000     0.549745000000     0.650235000000     0          
O        O      0.250000000000     0.564400000000     0.682740000000     0          
O        O      0.285790000000     0.500000000000     0.632675000000     0          
O        O      0.250000000000     0.635785000000     0.682330000000     0          
O        O      0.299475000000     0.561675000000     0.700525000000     0          
O        O      0.289340000000     0.649960000000     0.649960000000     0          
O        O      0.299525000000     0.638305000000     0.700475000000     0          
Si       Si     0.430950000000     0.781060000000     0.674955000000     0          
Si       Si     0.369010000000     0.781125000000     0.674870000000     0          
O        O      0.400000000000     0.785710000000     0.666720000000     0          
O        O      0.450255000000     0.789005000000     0.650235000000     0          
O        O      0.435600000000     0.750000000000     0.682740000000     0          
O        O      0.000000000000     0.785790000000     0.632675000000     0          
O        O      0.364215000000     0.750000000000     0.682330000000     0          
O        O      0.438325000000     0.799475000000     0.700525000000     0          
O        O      0.350040000000     0.789340000000     0.649960000000     0          
O        O      0.361695000000     0.799525000000     0.700475000000     0          
Si       Si     0.218940000000     0.930950000000     0.674955000000     0          
Si       Si     0.218875000000     0.869010000000     0.674870000000     0          
O        O      0.214290000000     0.900000000000     0.666720000000     0          
O        O      0.210995000000     0.950255000000     0.650235000000     0          
O        O      0.250000000000     0.935600000000     0.682740000000     0          
O        O      0.214210000000     0.500000000000     0.632675000000     0          
O        O      0.250000000000     0.864215000000     0.682330000000     0          
O        O      0.200525000000     0.938325000000     0.700525000000     0          
O        O      0.210660000000     0.850040000000     0.649960000000     0          
O        O      0.200475000000     0.861695000000     0.700475000000     0          
Si       Si     0.069050000000     0.718940000000     0.674955000000     0          
Si       Si     0.130990000000     0.718875000000     0.674870000000     0          
O        O      0.100000000000     0.714290000000     0.666720000000     0          
O        O      0.049745000000     0.710995000000     0.650235000000     0          
O        O      0.064400000000     0.750000000000     0.682740000000     0          
O        O      0.000000000000     0.714210000000     0.632675000000     0          
O        O      0.135785000000     0.750000000000     0.682330000000     0          
O        O      0.061675000000     0.700525000000     0.700525000000     0          
O        O      0.149960000000     0.710660000000     0.649960000000     0          
O        O      0.138305000000     0.700475000000     0.700475000000     0          
Si       Si     0.325045000000     0.781060000000     0.930950000000     0          
Si       Si     0.325130000000     0.781125000000     0.869010000000     0          
O        O      0.333280000000     0.785710000000     0.900000000000     0          
O        O      0.349765000000     0.789005000000     0.950255000000     0          
O        O      0.317260000000     0.750000000000     0.935600000000     0          
O        O      0.367325000000     0.785790000000     0.500000000000     0          
O        O      0.317670000000     0.750000000000     0.864215000000     0          
O        O      0.299475000000     0.799475000000     0.938325000000     0          
O        O      0.350040000000     0.789340000000     0.850040000000     0          
O        O      0.299525000000     0.799525000000     0.861695000000     0          
Si       Si     0.325045000000     0.718940000000     0.569050000000     0          
Si       Si     0.325130000000     0.718875000000     0.630990000000     0          
O        O      0.333280000000     0.714290000000     0.600000000000     0          
O        O      0.349765000000     0.710995000000     0.549745000000     0          
O        O      0.317260000000     0.750000000000     0.564400000000     0          
O        O      0.367325000000     0.714210000000     0.500000000000     0          
O        O      0.317670000000     0.750000000000     0.635785000000     0          
O        O      0.299475000000     0.700525000000     0.561675000000     0          
O        O      0.350040000000     0.710660000000     0.649960000000     0          
O        O      0.299525000000     0.700475000000     0.638305000000     0          
Si       Si     0.281060000000     0.825045000000     0.569050000000     0          
Si       Si     0.281125000000     0.825130000000     0.630990000000     0          
O        O      0.285710000000     0.833280000000     0.600000000000     0          
O        O      0.289005000000     0.849765000000     0.549745000000     0          
O        O      0.250000000000     0.817260000000     0.564400000000     0          
O        O      0.285790000000     0.867325000000     0.500000000000     0          
O        O      0.250000000000     0.817670000000     0.635785000000     0          
O        O      0.299475000000     0.799475000000     0.561675000000     0          
O        O      0.289340000000     0.850040000000     0.649960000000     0          
O        O      0.299525000000     0.799525000000     0.638305000000     0          
Si       Si     0.174955000000     0.781060000000     0.569050000000     0          
Si       Si     0.174870000000     0.781125000000     0.630990000000     0          
O        O      0.166720000000     0.785710000000     0.600000000000     0          
O        O      0.150235000000     0.789005000000     0.549745000000     0          
O        O      0.182740000000     0.750000000000     0.564400000000     0          
O        O      0.132675000000     0.785790000000     0.500000000000     0          
O        O      0.182330000000     0.750000000000     0.635785000000     0          
O        O      0.200525000000     0.799475000000     0.561675000000     0          
O        O      0.149960000000     0.789340000000     0.649960000000     0          
O        O      0.200475000000     0.799525000000     0.638305000000     0          
Si       Si     0.218940000000     0.674955000000     0.569050000000     0          
Si       Si     0.218875000000     0.674870000000     0.630990000000     0          
O        O      0.214290000000     0.666720000000     0.600000000000     0          
O        O      0.210995000000     0.650235000000     0.549745000000     0          
O        O      0.250000000000     0.682740000000     0.564400000000     0          
O        O      0.214210000000     0.632675000000     0.500000000000     0          
O        O      0.250000000000     0.682330000000     0.635785000000     0          
O        O      0.200525000000     0.700525000000     0.561675000000     0          
O        O      0.210660000000     0.649960000000     0.649960000000     0          
O        O      0.200475000000     0.700475000000     0.638305000000     0          
Si       Si     0.174955000000     0.718940000000     0.930950000000     0          
Si       Si     0.174870000000     0.718875000000     0.869010000000     0          
O        O      0.166720000000     0.714290000000     0.900000000000     0          
O        O      0.150235000000     0.710995000000     0.950255000000     0          
O        O      0.182740000000     0.750000000000     0.935600000000     0          
O        O      0.132675000000     0.714210000000     0.500000000000     0          
O        O      0.182330000000     0.750000000000     0.864215000000     0          
O        O      0.200525000000     0.700525000000     0.938325000000     0          
O        O      0.149960000000     0.710660000000     0.850040000000     0          
O        O      0.200475000000     0.700475000000     0.861695000000     0          
Si       Si     0.281060000000     0.674955000000     0.930950000000     0          
Si       Si     0.281125000000     0.674870000000     0.869010000000     0          
O        O      0.285710000000     0.666720000000     0.900000000000     0          
O        O      0.289005000000     0.650235000000     0.950255000000     0          
O        O      0.250000000000     0.682740000000     0.935600000000     0          
O        O      0.285790000000     0.632675000000     0.500000000000     0          
O        O      0.250000000000     0.682330000000     0.864215000000     0          
O        O      0.299475000000     0.700525000000     0.938325000000     0          
O        O      0.289340000000     0.649960000000     0.850040000000     0          
O        O      0.299525000000     0.700475000000     0.861695000000     0          
Si       Si     0.218940000000     0.825045000000     0.930950000000     0          
Si       Si     0.218875000000     0.825130000000     0.869010000000     0          
O        O      0.214290000000     0.833280000000     0.900000000000     0          
O        O      0.210995000000     0.849765000000     0.950255000000     0          
O        O      0.250000000000     0.817260000000     0.935600000000     0          
O        O      0.214210000000     0.867325000000     0.500000000000     0          
O        O      0.250000000000     0.817670000000     0.864215000000     0          
O        O      0.200525000000     0.799475000000     0.938325000000     0          
O        O      0.210660000000     0.850040000000     0.850040000000     0          
O        O      0.200475000000     0.799525000000     0.861695000000     0          
Si       Si     0.069050000000     0.674955000000     0.718940000000     0          
Si       Si     0.130990000000     0.674870000000     0.718875000000     0          
O        O      0.100000000000     0.666720000000     0.714290000000     0          
O        O      0.049745000000     0.650235000000     0.710995000000     0          
Si       Si     0.325045000000     0.569050000000     0.718940000000     0          
Si       Si     0.325130000000     0.630990000000     0.718875000000     0          
O        O      0.333280000000     0.600000000000     0.714290000000     0          
O        O      0.349765000000     0.549745000000     0.710995000000     0          
Si       Si     0.430950000000     0.825045000000     0.718940000000     0          
Si       Si     0.369010000000     0.825130000000     0.718875000000     0          
O        O      0.400000000000     0.833280000000     0.714290000000     0          
O        O      0.450255000000     0.849765000000     0.710995000000     0          
Si       Si     0.174955000000     0.930950000000     0.718940000000     0          
Si       Si     0.174870000000     0.869010000000     0.718875000000     0          
O        O      0.166720000000     0.900000000000     0.714290000000     0          
O        O      0.150235000000     0.950255000000     0.710995000000     0          
Si       Si     0.069050000000     0.825045000000     0.781060000000     0          
Si       Si     0.130990000000     0.825130000000     0.781125000000     0          
O        O      0.100000000000     0.833280000000     0.785710000000     0          
O        O      0.049745000000     0.849765000000     0.789005000000     0          
Si       Si     0.174955000000     0.569050000000     0.781060000000     0          
Si       Si     0.174870000000     0.630990000000     0.781125000000     0          
O        O      0.166720000000     0.600000000000     0.785710000000     0          
O        O      0.150235000000     0.549745000000     0.789005000000     0          
Si       Si     0.430950000000     0.674955000000     0.781060000000     0          
Si       Si     0.369010000000     0.674870000000     0.781125000000     0          
O        O      0.400000000000     0.666720000000     0.785710000000     0          
O        O      0.450255000000     0.650235000000     0.789005000000     0          
Si       Si     0.325045000000     0.930950000000     0.781060000000     0          
Si       Si     0.325130000000     0.869010000000     0.781125000000     0          
O        O      0.333280000000     0.900000000000     0.785710000000     0          
O        O      0.349765000000     0.950255000000     0.789005000000     0          
Si       Si     0.218940000000     0.569050000000     0.674955000000     0          
Si       Si     0.218875000000     0.630990000000     0.674870000000     0          
O        O      0.214290000000     0.600000000000     0.666720000000     0          
O        O      0.210995000000     0.549745000000     0.650235000000     0          
Si       Si     0.430950000000     0.718940000000     0.674955000000     0          
Si       Si     0.369010000000     0.718875000000     0.674870000000     0          
O        O      0.400000000000     0.714290000000     0.666720000000     0          
O        O      0.450255000000     0.710995000000     0.650235000000     0          
Si       Si     0.281060000000     0.930950000000     0.674955000000     0          
Si       Si     0.281125000000     0.869010000000     0.674870000000     0          
O        O      0.285710000000     0.900000000000     0.666720000000     0          
O        O      0.289005000000     0.950255000000     0.650235000000     0          
Si       Si     0.069050000000     0.781060000000     0.674955000000     0          
Si       Si     0.130990000000     0.781125000000     0.674870000000     0          
O        O      0.100000000000     0.785710000000     0.666720000000     0          
O        O      0.049745000000     0.789005000000     0.650235000000     0          
Si       Si     0.218940000000     0.930950000000     0.825045000000     0          
Si       Si     0.218875000000     0.869010000000     0.825130000000     0          
O        O      0.214290000000     0.900000000000     0.833280000000     0          
O        O      0.210995000000     0.950255000000     0.849765000000     0          
Si       Si     0.069050000000     0.718940000000     0.825045000000     0          
Si       Si     0.130990000000     0.718875000000     0.825130000000     0          
O        O      0.100000000000     0.714290000000     0.833280000000     0          
O        O      0.049745000000     0.710995000000     0.849765000000     0          
Si       Si     0.281060000000     0.569050000000     0.825045000000     0          
Si       Si     0.281125000000     0.630990000000     0.825130000000     0          
O        O      0.285710000000     0.600000000000     0.833280000000     0          
O        O      0.289005000000     0.549745000000     0.849765000000     0          
Si       Si     0.430950000000     0.781060000000     0.825045000000     0          
Si       Si     0.369010000000     0.781125000000     0.825130000000     0          
O        O      0.400000000000     0.785710000000     0.833280000000     0          
O        O      0.450255000000     0.789005000000     0.849765000000     0          
Si       Si     0.174955000000     0.718940000000     0.569050000000     0          
Si       Si     0.174870000000     0.718875000000     0.630990000000     0          
O        O      0.166720000000     0.714290000000     0.600000000000     0          
O        O      0.150235000000     0.710995000000     0.549745000000     0          
Si       Si     0.174955000000     0.781060000000     0.930950000000     0          
Si       Si     0.174870000000     0.781125000000     0.869010000000     0          
O        O      0.166720000000     0.785710000000     0.900000000000     0          
O        O      0.150235000000     0.789005000000     0.950255000000     0          
Si       Si     0.218940000000     0.674955000000     0.930950000000     0          
Si       Si     0.218875000000     0.674870000000     0.869010000000     0          
O        O      0.214290000000     0.666720000000     0.900000000000     0          
O        O      0.210995000000     0.650235000000     0.950255000000     0          
Si       Si     0.325045000000     0.718940000000     0.930950000000     0          
Si       Si     0.325130000000     0.718875000000     0.869010000000     0          
O        O      0.333280000000     0.714290000000     0.900000000000     0          
O        O      0.349765000000     0.710995000000     0.950255000000     0          
Si       Si     0.281060000000     0.825045000000     0.930950000000     0          
Si       Si     0.281125000000     0.825130000000     0.869010000000     0          
O        O      0.285710000000     0.833280000000     0.900000000000     0          
O        O      0.289005000000     0.849765000000     0.950255000000     0          
Si       Si     0.325045000000     0.781060000000     0.569050000000     0          
Si       Si     0.325130000000     0.781125000000     0.630990000000     0          
O        O      0.333280000000     0.785710000000     0.600000000000     0          
O        O      0.349765000000     0.789005000000     0.549745000000     0          
Si       Si     0.218940000000     0.825045000000     0.569050000000     0          
Si       Si     0.218875000000     0.825130000000     0.630990000000     0          
O        O      0.214290000000     0.833280000000     0.600000000000     0          
O        O      0.210995000000     0.849765000000     0.549745000000     0          
Si       Si     0.281060000000     0.674955000000     0.569050000000     0          
Si       Si     0.281125000000     0.674870000000     0.630990000000     0          
O        O      0.285710000000     0.666720000000     0.600000000000     0          
O        O      0.289005000000     0.650235000000     0.549745000000     0          
Si       Si     0.680950000000     0.075045000000     0.031060000000     0          
Si       Si     0.619010000000     0.075130000000     0.031125000000     0          
Si       Si     0.718915000000     0.125000000000     0.031085000000     0          
O        O      0.650000000000     0.083280000000     0.035710000000     0          
O        O      0.700255000000     0.099765000000     0.039005000000     0          
O        O      0.685600000000     0.067260000000     0.000000000000     0          
O        O      0.750000000000     0.117325000000     0.035790000000     0          
O        O      0.614215000000     0.067670000000     0.000000000000     0          
O        O      0.688325000000     0.049475000000     0.049475000000     0          
O        O      0.600040000000     0.100040000000     0.039340000000     0          
O        O      0.611695000000     0.049525000000     0.049525000000     0          
Si       Si     0.924955000000     0.180950000000     0.031060000000     0          
Si       Si     0.924870000000     0.119010000000     0.031125000000     0          
Si       Si     0.875000000000     0.218915000000     0.031085000000     0          
O        O      0.916720000000     0.150000000000     0.035710000000     0          
O        O      0.900235000000     0.200255000000     0.039005000000     0          
O        O      0.932740000000     0.185600000000     0.000000000000     0          
O        O      0.882675000000     0.250000000000     0.035790000000     0          
O        O      0.932330000000     0.114215000000     0.000000000000     0          
O        O      0.950525000000     0.188325000000     0.049475000000     0          
O        O      0.899960000000     0.100040000000     0.039340000000     0          
O        O      0.950475000000     0.111695000000     0.049525000000     0          
Si       Si     0.819050000000     0.424955000000     0.031060000000     0          
Si       Si     0.880990000000     0.424870000000     0.031125000000     0          
Si       Si     0.781085000000     0.375000000000     0.031085000000     0          
O        O      0.850000000000     0.416720000000     0.035710000000     0          
O        O      0.799745000000     0.400235000000     0.039005000000     0          
O        O      0.814400000000     0.432740000000     0.000000000000     0          
O        O      0.750000000000     0.382675000000     0.035790000000     0          
O        O      0.885785000000     0.432330000000     0.000000000000     0          
O        O      0.811675000000     0.450525000000     0.049475000000     0          
O        O      0.899960000000     0.399960000000     0.039340000000     0          
O        O      0.888305000000     0.450475000000     0.049525000000     0          
Si       Si     0.575045000000     0.319050000000     0.031060000000     0          
Si       Si     0.575130000000     0.380990000000     0.031125000000     0          
Si       Si     0.625000000000     0.281085000000     0.031085000000     0          
O        O      0.583280000000     0.350000000000     0.035710000000     0          
O        O      0.599765000000     0.299745000000     0.039005000000     0          
O        O      0.567260000000     0.314400000000     0.000000000000     0          
O        O      0.617325000000     0.250000000000     0.035790000000     0          
O        O      0.567670000000     0.385785000000     0.000000000000     0          
O        O      0.549475000000     0.311675000000     0.049475000000     0          
O        O      0.600040000000     0.399960000000     0.039340000000     0          
O        O      0.549525000000     0.388305000000     0.049525000000     0          
Si       Si     0.680950000000     0.424955000000     0.468940000000     0          
Si       Si     0.619010000000     0.424870000000     0.468875000000     0          
Si       Si     0.718915000000     0.375000000000     0.468915000000     0          
O        O      0.650000000000     0.416720000000     0.464290000000     0          
O        O      0.700255000000     0.400235000000     0.460995000000     0          
O        O      0.685600000000     0.432740000000     0.000000000000     0          
O        O      0.750000000000     0.382675000000     0.464210000000     0          
O        O      0.614215000000     0.432330000000     0.000000000000     0          
O        O      0.688325000000     0.450525000000     0.450525000000     0          
O        O      0.600040000000     0.399960000000     0.460660000000     0          
O        O      0.611695000000     0.450475000000     0.450475000000     0          
Si       Si     0.575045000000     0.180950000000     0.468940000000     0          
Si       Si     0.575130000000     0.119010000000     0.468875000000     0          
Si       Si     0.625000000000     0.218915000000     0.468915000000     0          
O        O      0.583280000000     0.150000000000     0.464290000000     0          
O        O      0.599765000000     0.200255000000     0.460995000000     0          
O        O      0.567260000000     0.185600000000     0.000000000000     0          
O        O      0.617325000000     0.250000000000     0.464210000000     0          
O        O      0.567670000000     0.114215000000     0.000000000000     0          
O        O      0.549475000000     0.188325000000     0.450525000000     0          
O        O      0.600040000000     0.100040000000     0.460660000000     0          
O        O      0.549525000000     0.111695000000     0.450475000000     0          
Si       Si     0.819050000000     0.075045000000     0.468940000000     0          
Si       Si     0.880990000000     0.075130000000     0.468875000000     0          
Si       Si     0.781085000000     0.125000000000     0.468915000000     0          
O        O      0.850000000000     0.083280000000     0.464290000000     0          
O        O      0.799745000000     0.099765000000     0.460995000000     0          
O        O      0.814400000000     0.067260000000     0.000000000000     0          
O        O      0.750000000000     0.117325000000     0.464210000000     0          
O        O      0.885785000000     0.067670000000     0.000000000000     0          
O        O      0.811675000000     0.049475000000     0.450525000000     0          
O        O      0.899960000000     0.100040000000     0.460660000000     0          
O        O      0.888305000000     0.049525000000     0.450475000000     0          
Si       Si     0.924955000000     0.319050000000     0.468940000000     0          
Si       Si     0.924870000000     0.380990000000     0.468875000000     0          
Si       Si     0.875000000000     0.281085000000     0.468915000000     0          
O        O      0.916720000000     0.350000000000     0.464290000000     0          
O        O      0.900235000000     0.299745000000     0.460995000000     0          
O        O      0.932740000000     0.314400000000     0.000000000000     0          
O        O      0.882675000000     0.250000000000     0.464210000000     0          
O        O      0.932330000000     0.385785000000     0.000000000000     0          
O        O      0.950525000000     0.311675000000     0.450525000000     0          
O        O      0.899960000000     0.399960000000     0.460660000000     0          
O        O      0.950475000000     0.388305000000     0.450475000000     0          
Si       Si     0.531060000000     0.180950000000     0.075045000000     0          
Si       Si     0.531125000000     0.119010000000     0.075130000000     0          
Si       Si     0.531085000000     0.218915000000     0.125000000000     0          
O        O      0.535710000000     0.150000000000     0.083280000000     0          
O        O      0.539005000000     0.200255000000     0.099765000000     0          
O        O      0.500000000000     0.185600000000     0.067260000000     0          
O        O      0.535790000000     0.250000000000     0.117325000000     0          
O        O      0.500000000000     0.114215000000     0.067670000000     0          
O        O      0.549475000000     0.188325000000     0.049475000000     0          
O        O      0.539340000000     0.100040000000     0.100040000000     0          
O        O      0.549525000000     0.111695000000     0.049525000000     0          
Si       Si     0.819050000000     0.031060000000     0.075045000000     0          
Si       Si     0.880990000000     0.031125000000     0.075130000000     0          
Si       Si     0.781085000000     0.031085000000     0.125000000000     0          
O        O      0.850000000000     0.035710000000     0.083280000000     0          
O        O      0.799745000000     0.039005000000     0.099765000000     0          
O        O      0.814400000000     0.000000000000     0.067260000000     0          
O        O      0.750000000000     0.035790000000     0.117325000000     0          
O        O      0.885785000000     0.000000000000     0.067670000000     0          
O        O      0.811675000000     0.049475000000     0.049475000000     0          
O        O      0.899960000000     0.039340000000     0.100040000000     0          
O        O      0.888305000000     0.049525000000     0.049525000000     0          
Si       Si     0.968940000000     0.319050000000     0.075045000000     0          
Si       Si     0.968875000000     0.380990000000     0.075130000000     0          
Si       Si     0.968915000000     0.281085000000     0.125000000000     0          
O        O      0.964290000000     0.350000000000     0.083280000000     0          
O        O      0.960995000000     0.299745000000     0.099765000000     0          
O        O      0.500000000000     0.314400000000     0.067260000000     0          
O        O      0.964210000000     0.250000000000     0.117325000000     0          
O        O      0.500000000000     0.385785000000     0.067670000000     0          
O        O      0.950525000000     0.311675000000     0.049475000000     0          
O        O      0.960660000000     0.399960000000     0.100040000000     0          
O        O      0.950475000000     0.388305000000     0.049525000000     0          
Si       Si     0.680950000000     0.468940000000     0.075045000000     0          
Si       Si     0.619010000000     0.468875000000     0.075130000000     0          
Si       Si     0.718915000000     0.468915000000     0.125000000000     0          
O        O      0.650000000000     0.464290000000     0.083280000000     0          
O        O      0.700255000000     0.460995000000     0.099765000000     0          
O        O      0.685600000000     0.000000000000     0.067260000000     0          
O        O      0.750000000000     0.464210000000     0.117325000000     0          
O        O      0.614215000000     0.000000000000     0.067670000000     0          
O        O      0.688325000000     0.450525000000     0.049475000000     0          
O        O      0.600040000000     0.460660000000     0.100040000000     0          
O        O      0.611695000000     0.450475000000     0.049525000000     0          
Si       Si     0.531060000000     0.319050000000     0.424955000000     0          
Si       Si     0.531125000000     0.380990000000     0.424870000000     0          
Si       Si     0.531085000000     0.281085000000     0.375000000000     0          
O        O      0.535710000000     0.350000000000     0.416720000000     0          
O        O      0.539005000000     0.299745000000     0.400235000000     0          
O        O      0.500000000000     0.314400000000     0.432740000000     0          
O        O      0.535790000000     0.250000000000     0.382675000000     0          
O        O      0.500000000000     0.385785000000     0.432330000000     0          
O        O      0.549475000000     0.311675000000     0.450525000000     0          
O        O      0.539340000000     0.399960000000     0.399960000000     0          
O        O      0.549525000000     0.388305000000     0.450475000000     0          
Si       Si     0.680950000000     0.031060000000     0.424955000000     0          
Si       Si     0.619010000000     0.031125000000     0.424870000000     0          
Si       Si     0.718915000000     0.031085000000     0.375000000000     0          
O        O      0.650000000000     0.035710000000     0.416720000000     0          
O        O      0.700255000000     0.039005000000     0.400235000000     0          
O        O      0.685600000000     0.000000000000     0.432740000000     0          
O        O      0.750000000000     0.035790000000     0.382675000000     0          
O        O      0.614215000000     0.000000000000     0.432330000000     0          
O        O      0.688325000000     0.049475000000     0.450525000000     0          
O        O      0.600040000000     0.039340000000     0.399960000000     0          
O        O      0.611695000000     0.049525000000     0.450475000000     0          
Si       Si     0.968940000000     0.180950000000     0.424955000000     0          
Si       Si     0.968875000000     0.119010000000     0.424870000000     0          
Si       Si     0.968915000000     0.218915000000     0.375000000000     0          
O        O      0.964290000000     0.150000000000     0.416720000000     0          
O        O      0.960995000000     0.200255000000     0.400235000000     0          
O        O      0.500000000000     0.185600000000     0.432740000000     0          
O        O      0.964210000000     0.250000000000     0.382675000000     0          
O        O      0.500000000000     0.114215000000     0.432330000000     0          
O        O      0.950525000000     0.188325000000     0.450525000000     0          
O        O      0.960660000000     0.100040000000     0.399960000000     0          
O        O      0.950475000000     0.111695000000     0.450475000000     0          
Si       Si     0.819050000000     0.468940000000     0.424955000000     0          
Si       Si     0.880990000000     0.468875000000     0.424870000000     0          
Si       Si     0.781085000000     0.468915000000     0.375000000000     0          
O        O      0.850000000000     0.464290000000     0.416720000000     0          
O        O      0.799745000000     0.460995000000     0.400235000000     0          
O        O      0.814400000000     0.000000000000     0.432740000000     0          
O        O      0.750000000000     0.464210000000     0.382675000000     0          
O        O      0.885785000000     0.000000000000     0.432330000000     0          
O        O      0.811675000000     0.450525000000     0.450525000000     0          
O        O      0.899960000000     0.460660000000     0.399960000000     0          
O        O      0.888305000000     0.450475000000     0.450475000000     0          
Si       Si     0.575045000000     0.031060000000     0.180950000000     0          
Si       Si     0.575130000000     0.031125000000     0.119010000000     0          
Si       Si     0.625000000000     0.031085000000     0.218915000000     0          
O        O      0.583280000000     0.035710000000     0.150000000000     0          
O        O      0.599765000000     0.039005000000     0.200255000000     0          
O        O      0.567260000000     0.000000000000     0.185600000000     0          
O        O      0.617325000000     0.035790000000     0.250000000000     0          
O        O      0.567670000000     0.000000000000     0.114215000000     0          
O        O      0.549475000000     0.049475000000     0.188325000000     0          
O        O      0.600040000000     0.039340000000     0.100040000000     0          
O        O      0.549525000000     0.049525000000     0.111695000000     0          
Si       Si     0.575045000000     0.468940000000     0.319050000000     0          
Si       Si     0.575130000000     0.468875000000     0.380990000000     0          
Si       Si     0.625000000000     0.468915000000     0.281085000000     0          
O        O      0.583280000000     0.464290000000     0.350000000000     0          
O        O      0.599765000000     0.460995000000     0.299745000000     0          
O        O      0.567260000000     0.000000000000     0.314400000000     0          
O        O      0.617325000000     0.464210000000     0.250000000000     0          
O        O      0.567670000000     0.000000000000     0.385785000000     0          
O        O      0.549475000000     0.450525000000     0.311675000000     0          
O        O      0.600040000000     0.460660000000     0.399960000000     0          
O        O      0.549525000000     0.450475000000     0.388305000000     0          
Si       Si     0.531060000000     0.075045000000     0.319050000000     0          
Si       Si     0.531125000000     0.075130000000     0.380990000000     0          
Si       Si     0.531085000000     0.125000000000     0.281085000000     0          
O        O      0.535710000000     0.083280000000     0.350000000000     0          
O        O      0.539005000000     0.099765000000     0.299745000000     0          
O        O      0.500000000000     0.067260000000     0.314400000000     0          
O        O      0.535790000000     0.117325000000     0.250000000000     0          
O        O      0.500000000000     0.067670000000     0.385785000000     0          
O        O      0.549475000000     0.049475000000     0.311675000000     0          
O        O      0.539340000000     0.100040000000     0.399960000000     0          
O        O      0.549525000000     0.049525000000     0.388305000000     0          
Si       Si     0.924955000000     0.031060000000     0.319050000000     0          
Si       Si     0.924870000000     0.031125000000     0.380990000000     0          
Si       Si     0.875000000000     0.031085000000     0.281085000000     0          
O        O      0.916720000000     0.035710000000     0.350000000000     0          
O        O      0.900235000000     0.039005000000     0.299745000000     0          
O        O      0.932740000000     0.000000000000     0.314400000000     0          
O        O      0.882675000000     0.035790000000     0.250000000000     0          
O        O      0.932330000000     0.000000000000     0.385785000000     0          
O        O      0.950525000000     0.049475000000     0.311675000000     0          
O        O      0.899960000000     0.039340000000     0.399960000000     0          
O        O      0.950475000000     0.049525000000     0.388305000000     0          
Si       Si     0.968940000000     0.424955000000     0.319050000000     0          
Si       Si     0.968875000000     0.424870000000     0.380990000000     0          
Si       Si     0.968915000000     0.375000000000     0.281085000000     0          
O        O      0.964290000000     0.416720000000     0.350000000000     0          
O        O      0.960995000000     0.400235000000     0.299745000000     0          
O        O      0.500000000000     0.432740000000     0.314400000000     0          
O        O      0.964210000000     0.382675000000     0.250000000000     0          
O        O      0.500000000000     0.432330000000     0.385785000000     0          
O        O      0.950525000000     0.450525000000     0.311675000000     0          
O        O      0.960660000000     0.399960000000     0.399960000000     0          
O        O      0.950475000000     0.450475000000     0.388305000000     0          
Si       Si     0.924955000000     0.468940000000     0.180950000000     0          
Si       Si     0.924870000000     0.468875000000     0.119010000000     0          
Si       Si     0.875000000000     0.468915000000     0.218915000000     0          
O        O      0.916720000000     0.464290000000     0.150000000000     0          
O        O      0.900235000000     0.460995000000     0.200255000000     0          
O        O      0.932740000000     0.000000000000     0.185600000000     0          
O        O      0.882675000000     0.464210000000     0.250000000000     0          
O        O      0.932330000000     0.000000000000     0.114215000000     0          
O        O      0.950525000000     0.450525000000     0.188325000000     0          
O        O      0.899960000000     0.460660000000     0.100040000000     0          
O        O      0.950475000000     0.450475000000     0.111695000000     0          
Si       Si     0.531060000000     0.424955000000     0.180950000000     0          
Si       Si     0.531125000000     0.424870000000     0.119010000000     0          
Si       Si     0.531085000000     0.375000000000     0.218915000000     0          
O        O      0.535710000000     0.416720000000     0.150000000000     0          
O        O      0.539005000000     0.400235000000     0.200255000000     0          
O        O      0.500000000000     0.432740000000     0.185600000000     0          
O        O      0.535790000000     0.382675000000     0.250000000000     0          
O        O      0.500000000000     0.432330000000     0.114215000000     0          
O        O      0.549475000000     0.450525000000     0.188325000000     0          
O        O      0.539340000000     0.399960000000     0.100040000000     0          
O        O      0.549525000000     0.450475000000     0.111695000000     0          
Si       Si     0.968940000000     0.075045000000     0.180950000000     0          
Si       Si     0.968875000000     0.075130000000     0.119010000000     0          
Si       Si     0.968915000000     0.125000000000     0.218915000000     0          
O        O      0.964290000000     0.083280000000     0.150000000000     0          
O        O      0.960995000000     0.099765000000     0.200255000000     0          
O        O      0.500000000000     0.067260000000     0.185600000000     0          
O        O      0.964210000000     0.117325000000     0.250000000000     0          
O        O      0.500000000000     0.067670000000     0.114215000000     0          
O        O      0.950525000000     0.049475000000     0.188325000000     0          
O        O      0.960660000000     0.100040000000     0.100040000000     0          
O        O      0.950475000000     0.049525000000     0.111695000000     0          
Si       Si     0.819050000000     0.424955000000     0.468940000000     0          
Si       Si     0.880990000000     0.424870000000     0.468875000000     0          
Si       Si     0.781085000000     0.375000000000     0.468915000000     0          
O        O      0.850000000000     0.416720000000     0.464290000000     0          
O        O      0.799745000000     0.400235000000     0.460995000000     0          
Si       Si     0.575045000000     0.319050000000     0.468940000000     0          
Si       Si     0.575130000000     0.380990000000     0.468875000000     0          
Si       Si     0.625000000000     0.281085000000     0.468915000000     0          
O        O      0.583280000000     0.350000000000     0.464290000000     0          
O        O      0.599765000000     0.299745000000     0.460995000000     0          
Si       Si     0.680950000000     0.075045000000     0.468940000000     0          
Si       Si     0.619010000000     0.075130000000     0.468875000000     0          
Si       Si     0.718915000000     0.125000000000     0.468915000000     0          
O        O      0.650000000000     0.083280000000     0.464290000000     0          
O        O      0.700255000000     0.099765000000     0.460995000000     0          
Si       Si     0.924955000000     0.180950000000     0.468940000000     0          
Si       Si     0.924870000000     0.119010000000     0.468875000000     0          
Si       Si     0.875000000000     0.218915000000     0.468915000000     0          
O        O      0.916720000000     0.150000000000     0.464290000000     0          
O        O      0.900235000000     0.200255000000     0.460995000000     0          
Si       Si     0.819050000000     0.075045000000     0.031060000000     0          
Si       Si     0.880990000000     0.075130000000     0.031125000000     0          
Si       Si     0.781085000000     0.125000000000     0.031085000000     0          
O        O      0.850000000000     0.083280000000     0.035710000000     0          
O        O      0.799745000000     0.099765000000     0.039005000000     0          
Si       Si     0.924955000000     0.319050000000     0.031060000000     0          
Si       Si     0.924870000000     0.380990000000     0.031125000000     0          
Si       Si     0.875000000000     0.281085000000     0.031085000000     0          
O        O      0.916720000000     0.350000000000     0.035710000000     0          
O        O      0.900235000000     0.299745000000     0.039005000000     0          
Si       Si     0.680950000000     0.424955000000     0.031060000000     0          
Si       Si     0.619010000000     0.424870000000     0.031125000000     0          
Si       Si     0.718915000000     0.375000000000     0.031085000000     0          
O        O      0.650000000000     0.416720000000     0.035710000000     0          
O        O      0.700255000000     0.400235000000     0.039005000000     0          
Si       Si     0.575045000000     0.180950000000     0.031060000000     0          
Si       Si     0.575130000000     0.119010000000     0.031125000000     0          
Si       Si     0.625000000000     0.218915000000     0.031085000000     0          
O        O      0.583280000000     0.150000000000     0.035710000000     0          
O        O      0.599765000000     0.200255000000     0.039005000000     0          
Si       Si     0.968940000000     0.319050000000     0.424955000000     0          
Si       Si     0.968875000000     0.380990000000     0.424870000000     0          
Si       Si     0.968915000000     0.281085000000     0.375000000000     0          
O        O      0.964290000000     0.350000000000     0.416720000000     0          
O        O      0.960995000000     0.299745000000     0.400235000000     0          
Si       Si     0.680950000000     0.468940000000     0.424955000000     0          
Si       Si     0.619010000000     0.468875000000     0.424870000000     0          
Si       Si     0.718915000000     0.468915000000     0.375000000000     0          
O        O      0.650000000000     0.464290000000     0.416720000000     0          
O        O      0.700255000000     0.460995000000     0.400235000000     0          
Si       Si     0.531060000000     0.180950000000     0.424955000000     0          
Si       Si     0.531125000000     0.119010000000     0.424870000000     0          
Si       Si     0.531085000000     0.218915000000     0.375000000000     0          
O        O      0.535710000000     0.150000000000     0.416720000000     0          
O        O      0.539005000000     0.200255000000     0.400235000000     0          
Si       Si     0.819050000000     0.031060000000     0.424955000000     0          
Si       Si     0.880990000000     0.031125000000     0.424870000000     0          
Si       Si     0.781085000000     0.031085000000     0.375000000000     0          
O        O      0.850000000000     0.035710000000     0.416720000000     0          
O        O      0.799745000000     0.039005000000     0.400235000000     0          
Si       Si     0.968940000000     0.180950000000     0.075045000000     0          
Si       Si     0.968875000000     0.119010000000     0.075130000000     0          
Si       Si     0.968915000000     0.218915000000     0.125000000000     0          
O        O      0.964290000000     0.150000000000     0.083280000000     0          
O        O      0.960995000000     0.200255000000     0.099765000000     0          
Si       Si     0.819050000000     0.468940000000     0.075045000000     0          
Si       Si     0.880990000000     0.468875000000     0.075130000000     0          
Si       Si     0.781085000000     0.468915000000     0.125000000000     0          
O        O      0.850000000000     0.464290000000     0.083280000000     0          
O        O      0.799745000000     0.460995000000     0.099765000000     0          
Si       Si     0.531060000000     0.319050000000     0.075045000000     0          
Si       Si     0.531125000000     0.380990000000     0.075130000000     0          
Si       Si     0.531085000000     0.281085000000     0.125000000000     0          
O        O      0.535710000000     0.350000000000     0.083280000000     0          
O        O      0.539005000000     0.299745000000     0.099765000000     0          
Si       Si     0.680950000000     0.031060000000     0.075045000000     0          
Si       Si     0.619010000000     0.031125000000     0.075130000000     0          
Si       Si     0.718915000000     0.031085000000     0.125000000000     0          
O        O      0.650000000000     0.035710000000     0.083280000000     0          
O        O      0.700255000000     0.039005000000     0.099765000000     0          
Si       Si     0.924955000000     0.468940000000     0.319050000000     0          
Si       Si     0.924870000000     0.468875000000     0.380990000000     0          
Si       Si     0.875000000000     0.468915000000     0.281085000000     0          
O        O      0.916720000000     0.464290000000     0.350000000000     0          
O        O      0.900235000000     0.460995000000     0.299745000000     0          
Si       Si     0.924955000000     0.031060000000     0.180950000000     0          
Si       Si     0.924870000000     0.031125000000     0.119010000000     0          
Si       Si     0.875000000000     0.031085000000     0.218915000000     0          
O        O      0.916720000000     0.035710000000     0.150000000000     0          
O        O      0.900235000000     0.039005000000     0.200255000000     0          
Si       Si     0.968940000000     0.424955000000     0.180950000000     0          
Si       Si     0.968875000000     0.424870000000     0.119010000000     0          
Si       Si     0.968915000000     0.375000000000     0.218915000000     0          
O        O      0.964290000000     0.416720000000     0.150000000000     0          
O        O      0.960995000000     0.400235000000     0.200255000000     0          
Si       Si     0.575045000000     0.468940000000     0.180950000000     0          
Si       Si     0.575130000000     0.468875000000     0.119010000000     0          
Si       Si     0.625000000000     0.468915000000     0.218915000000     0          
O        O      0.583280000000     0.464290000000     0.150000000000     0          
O        O      0.599765000000     0.460995000000     0.200255000000     0          
Si       Si     0.531060000000     0.075045000000     0.180950000000     0          
Si       Si     0.531125000000     0.075130000000     0.119010000000     0          
Si       Si     0.531085000000     0.125000000000     0.218915000000     0          
O        O      0.535710000000     0.083280000000     0.150000000000     0          
O        O      0.539005000000     0.099765000000     0.200255000000     0          
Si       Si     0.575045000000     0.031060000000     0.319050000000     0          
Si       Si     0.575130000000     0.031125000000     0.380990000000     0          
Si       Si     0.625000000000     0.031085000000     0.281085000000     0          
O        O      0.583280000000     0.035710000000     0.350000000000     0          
O        O      0.599765000000     0.039005000000     0.299745000000     0          
Si       Si     0.968940000000     0.075045000000     0.319050000000     0          
Si       Si     0.968875000000     0.075130000000     0.380990000000     0          
Si       Si     0.968915000000     0.125000000000     0.281085000000     0          
O        O      0.964290000000     0.083280000000     0.350000000000     0          
O        O      0.960995000000     0.099765000000     0.299745000000     0          
Si       Si     0.531060000000     0.424955000000     0.319050000000     0          
Si       Si     0.531125000000     0.424870000000     0.380990000000     0          
Si       Si     0.531085000000     0.375000000000     0.281085000000     0          
O        O      0.535710000000     0.416720000000     0.350000000000     0          
O        O      0.539005000000     0.400235000000     0.299745000000     0          
Si       Si     0.930950000000     0.325045000000     0.281060000000     0          
Si       Si     0.869010000000     0.325130000000     0.281125000000     0          
O        O      0.900000000000     0.333280000000     0.285710000000     0          
O        O      0.950255000000     0.349765000000     0.289005000000     0          
O        O      0.935600000000     0.317260000000     0.250000000000     0          
O        O      0.500000000000     0.367325000000     0.285790000000     0          
O        O      0.864215000000     0.317670000000     0.250000000000     0          
O        O      0.938325000000     0.299475000000     0.299475000000     0          
O        O      0.850040000000     0.350040000000     0.289340000000     0          
O        O      0.861695000000     0.299525000000     0.299525000000     0          
Si       Si     0.674955000000     0.430950000000     0.281060000000     0          
Si       Si     0.674870000000     0.369010000000     0.281125000000     0          
O        O      0.666720000000     0.400000000000     0.285710000000     0          
O        O      0.650235000000     0.450255000000     0.289005000000     0          
O        O      0.682740000000     0.435600000000     0.250000000000     0          
O        O      0.632675000000     0.000000000000     0.285790000000     0          
O        O      0.682330000000     0.364215000000     0.250000000000     0          
O        O      0.700525000000     0.438325000000     0.299475000000     0          
O        O      0.649960000000     0.350040000000     0.289340000000     0          
O        O      0.700475000000     0.361695000000     0.299525000000     0          
Si       Si     0.569050000000     0.174955000000     0.281060000000     0          
Si       Si     0.630990000000     0.174870000000     0.281125000000     0          
O        O      0.600000000000     0.166720000000     0.285710000000     0          
O        O      0.549745000000     0.150235000000     0.289005000000     0          
O        O      0.564400000000     0.182740000000     0.250000000000     0          
O        O      0.500000000000     0.132675000000     0.285790000000     0          
O        O      0.635785000000     0.182330000000     0.250000000000     0          
O        O      0.561675000000     0.200525000000     0.299475000000     0          
O        O      0.649960000000     0.149960000000     0.289340000000     0          
O        O      0.638305000000     0.200475000000     0.299525000000     0          
Si       Si     0.825045000000     0.069050000000     0.281060000000     0          
Si       Si     0.825130000000     0.130990000000     0.281125000000     0          
O        O      0.833280000000     0.100000000000     0.285710000000     0          
O        O      0.849765000000     0.049745000000     0.289005000000     0          
O        O      0.817260000000     0.064400000000     0.250000000000     0          
O        O      0.867325000000     0.000000000000     0.285790000000     0          
O        O      0.817670000000     0.135785000000     0.250000000000     0          
O        O      0.799475000000     0.061675000000     0.299475000000     0          
O        O      0.850040000000     0.149960000000     0.289340000000     0          
O        O      0.799525000000     0.138305000000     0.299525000000     0          
Si       Si     0.930950000000     0.174955000000     0.218940000000     0          
Si       Si     0.869010000000     0.174870000000     0.218875000000     0          
O        O      0.900000000000     0.166720000000     0.214290000000     0          
O        O      0.950255000000     0.150235000000     0.210995000000     0          
O        O      0.935600000000     0.182740000000     0.250000000000     0          
O        O      0.500000000000     0.132675000000     0.214210000000     0          
O        O      0.864215000000     0.182330000000     0.250000000000     0          
O        O      0.938325000000     0.200525000000     0.200525000000     0          
O        O      0.850040000000     0.149960000000     0.210660000000     0          
O        O      0.861695000000     0.200475000000     0.200475000000     0          
Si       Si     0.825045000000     0.430950000000     0.218940000000     0          
Si       Si     0.825130000000     0.369010000000     0.218875000000     0          
O        O      0.833280000000     0.400000000000     0.214290000000     0          
O        O      0.849765000000     0.450255000000     0.210995000000     0          
O        O      0.817260000000     0.435600000000     0.250000000000     0          
O        O      0.867325000000     0.000000000000     0.214210000000     0          
O        O      0.817670000000     0.364215000000     0.250000000000     0          
O        O      0.799475000000     0.438325000000     0.200525000000     0          
O        O      0.850040000000     0.350040000000     0.210660000000     0          
O        O      0.799525000000     0.361695000000     0.200475000000     0          
Si       Si     0.569050000000     0.325045000000     0.218940000000     0          
Si       Si     0.630990000000     0.325130000000     0.218875000000     0          
O        O      0.600000000000     0.333280000000     0.214290000000     0          
O        O      0.549745000000     0.349765000000     0.210995000000     0          
O        O      0.564400000000     0.317260000000     0.250000000000     0          
O        O      0.500000000000     0.367325000000     0.214210000000     0          
O        O      0.635785000000     0.317670000000     0.250000000000     0          
O        O      0.561675000000     0.299475000000     0.200525000000     0          
O        O      0.649960000000     0.350040000000     0.210660000000     0          
O        O      0.638305000000     0.299525000000     0.200475000000     0          
Si       Si     0.674955000000     0.069050000000     0.218940000000     0          
Si       Si     0.674870000000     0.130990000000     0.218875000000     0          
O        O      0.666720000000     0.100000000000     0.214290000000     0          
O        O      0.650235000000     0.049745000000     0.210995000000     0          
O        O      0.682740000000     0.064400000000     0.250000000000     0          
O        O      0.632675000000     0.000000000000     0.214210000000     0          
O        O      0.682330000000     0.135785000000     0.250000000000     0          
O        O      0.700525000000     0.061675000000     0.200525000000     0          
O        O      0.649960000000     0.149960000000     0.210660000000     0          
O        O      0.700475000000     0.138305000000     0.200475000000     0          
Si       Si     0.781060000000     0.430950000000     0.325045000000     0          
Si       Si     0.781125000000     0.369010000000     0.325130000000     0          
O        O      0.785710000000     0.400000000000     0.333280000000     0          
O        O      0.789005000000     0.450255000000     0.349765000000     0          
O        O      0.750000000000     0.435600000000     0.317260000000     0          
O        O      0.785790000000     0.000000000000     0.367325000000     0          
O        O      0.750000000000     0.364215000000     0.317670000000     0          
O        O      0.799475000000     0.438325000000     0.299475000000     0          
O        O      0.789340000000     0.350040000000     0.350040000000     0          
O        O      0.799525000000     0.361695000000     0.299525000000     0          
Si       Si     0.569050000000     0.281060000000     0.325045000000     0          
Si       Si     0.630990000000     0.281125000000     0.325130000000     0          
O        O      0.600000000000     0.285710000000     0.333280000000     0          
O        O      0.549745000000     0.289005000000     0.349765000000     0          
O        O      0.564400000000     0.250000000000     0.317260000000     0          
O        O      0.500000000000     0.285790000000     0.367325000000     0          
O        O      0.635785000000     0.250000000000     0.317670000000     0          
O        O      0.561675000000     0.299475000000     0.299475000000     0          
O        O      0.649960000000     0.289340000000     0.350040000000     0          
O        O      0.638305000000     0.299525000000     0.299525000000     0          
Si       Si     0.718940000000     0.069050000000     0.325045000000     0          
Si       Si     0.718875000000     0.130990000000     0.325130000000     0          
O        O      0.714290000000     0.100000000000     0.333280000000     0          
O        O      0.710995000000     0.049745000000     0.349765000000     0          
O        O      0.750000000000     0.064400000000     0.317260000000     0          
O        O      0.714210000000     0.000000000000     0.367325000000     0          
O        O      0.750000000000     0.135785000000     0.317670000000     0          
O        O      0.700525000000     0.061675000000     0.299475000000     0          
O        O      0.710660000000     0.149960000000     0.350040000000     0          
O        O      0.700475000000     0.138305000000     0.299525000000     0          
Si       Si     0.930950000000     0.218940000000     0.325045000000     0          
Si       Si     0.869010000000     0.218875000000     0.325130000000     0          
O        O      0.900000000000     0.214290000000     0.333280000000     0          
O        O      0.950255000000     0.210995000000     0.349765000000     0          
O        O      0.935600000000     0.250000000000     0.317260000000     0          
O        O      0.500000000000     0.214210000000     0.367325000000     0          
O        O      0.864215000000     0.250000000000     0.317670000000     0          
O        O      0.938325000000     0.200525000000     0.299475000000     0          
O        O      0.850040000000     0.210660000000     0.350040000000     0          
O        O      0.861695000000     0.200475000000     0.299525000000     0          
Si       Si     0.781060000000     0.069050000000     0.174955000000     0          
Si       Si     0.781125000000     0.130990000000     0.174870000000     0          
O        O      0.785710000000     0.100000000000     0.166720000000     0          
O        O      0.789005000000     0.049745000000     0.150235000000     0          
O        O      0.750000000000     0.064400000000     0.182740000000     0          
O        O      0.785790000000     0.000000000000     0.132675000000     0          
O        O      0.750000000000     0.135785000000     0.182330000000     0          
O        O      0.799475000000     0.061675000000     0.200525000000     0          
O        O      0.789340000000     0.149960000000     0.149960000000     0          
O        O      0.799525000000     0.138305000000     0.200475000000     0          
Si       Si     0.930950000000     0.281060000000     0.174955000000     0          
Si       Si     0.869010000000     0.281125000000     0.174870000000     0          
O        O      0.900000000000     0.285710000000     0.166720000000     0          
O        O      0.950255000000     0.289005000000     0.150235000000     0          
O        O      0.935600000000     0.250000000000     0.182740000000     0          
O        O      0.500000000000     0.285790000000     0.132675000000     0          
O        O      0.864215000000     0.250000000000     0.182330000000     0          
O        O      0.938325000000     0.299475000000     0.200525000000     0          
O        O      0.850040000000     0.289340000000     0.149960000000     0          
O        O      0.861695000000     0.299525000000     0.200475000000     0          
Si       Si     0.718940000000     0.430950000000     0.174955000000     0          
Si       Si     0.718875000000     0.369010000000     0.174870000000     0          
O        O      0.714290000000     0.400000000000     0.166720000000     0          
O        O      0.710995000000     0.450255000000     0.150235000000     0          
O        O      0.750000000000     0.435600000000     0.182740000000     0          
O        O      0.714210000000     0.000000000000     0.132675000000     0          
O        O      0.750000000000     0.364215000000     0.182330000000     0          
O        O      0.700525000000     0.438325000000     0.200525000000     0          
O        O      0.710660000000     0.350040000000     0.149960000000     0          
O        O      0.700475000000     0.361695000000     0.200475000000     0          
Si       Si     0.569050000000     0.218940000000     0.174955000000     0          
Si       Si     0.630990000000     0.218875000000     0.174870000000     0          
O        O      0.600000000000     0.214290000000     0.166720000000     0          
O        O      0.549745000000     0.210995000000     0.150235000000     0          
O        O      0.564400000000     0.250000000000     0.182740000000     0          
O        O      0.500000000000     0.214210000000     0.132675000000     0          
O        O      0.635785000000     0.250000000000     0.182330000000     0          
O        O      0.561675000000     0.200525000000     0.200525000000     0          
O        O      0.649960000000     0.210660000000     0.149960000000     0          
O        O      0.638305000000     0.200475000000     0.200475000000     0          
Si       Si     0.825045000000     0.281060000000     0.430950000000     0          
Si       Si     0.825130000000     0.281125000000     0.369010000000     0          
O        O      0.833280000000     0.285710000000     0.400000000000     0          
O        O      0.849765000000     0.289005000000     0.450255000000     0          
O        O      0.817260000000     0.250000000000     0.435600000000     0          
O        O      0.867325000000     0.285790000000     0.000000000000     0          
O        O      0.817670000000     0.250000000000     0.364215000000     0          
O        O      0.799475000000     0.299475000000     0.438325000000     0          
O        O      0.850040000000     0.289340000000     0.350040000000     0          
O        O      0.799525000000     0.299525000000     0.361695000000     0          
Si       Si     0.825045000000     0.218940000000     0.069050000000     0          
Si       Si     0.825130000000     0.218875000000     0.130990000000     0          
O        O      0.833280000000     0.214290000000     0.100000000000     0          
O        O      0.849765000000     0.210995000000     0.049745000000     0          
O        O      0.817260000000     0.250000000000     0.064400000000     0          
O        O      0.867325000000     0.214210000000     0.000000000000     0          
O        O      0.817670000000     0.250000000000     0.135785000000     0          
O        O      0.799475000000     0.200525000000     0.061675000000     0          
O        O      0.850040000000     0.210660000000     0.149960000000     0          
O        O      0.799525000000     0.200475000000     0.138305000000     0          
Si       Si     0.781060000000     0.325045000000     0.069050000000     0          
Si       Si     0.781125000000     0.325130000000     0.130990000000     0          
O        O      0.785710000000     0.333280000000     0.100000000000     0          
O        O      0.789005000000     0.349765000000     0.049745000000     0          
O        O      0.750000000000     0.317260000000     0.064400000000     0          
O        O      0.785790000000     0.367325000000     0.000000000000     0          
O        O      0.750000000000     0.317670000000     0.135785000000     0          
O        O      0.799475000000     0.299475000000     0.061675000000     0          
O        O      0.789340000000     0.350040000000     0.149960000000     0          
O        O      0.799525000000     0.299525000000     0.138305000000     0          
Si       Si     0.674955000000     0.281060000000     0.069050000000     0          
Si       Si     0.674870000000     0.281125000000     0.130990000000     0          
O        O      0.666720000000     0.285710000000     0.100000000000     0          
O        O      0.650235000000     0.289005000000     0.049745000000     0          
O        O      0.682740000000     0.250000000000     0.064400000000     0          
O        O      0.632675000000     0.285790000000     0.000000000000     0          
O        O      0.682330000000     0.250000000000     0.135785000000     0          
O        O      0.700525000000     0.299475000000     0.061675000000     0          
O        O      0.649960000000     0.289340000000     0.149960000000     0          
O        O      0.700475000000     0.299525000000     0.138305000000     0          
Si       Si     0.718940000000     0.174955000000     0.069050000000     0          
Si       Si     0.718875000000     0.174870000000     0.130990000000     0          
O        O      0.714290000000     0.166720000000     0.100000000000     0          
O        O      0.710995000000     0.150235000000     0.049745000000     0          
O        O      0.750000000000     0.182740000000     0.064400000000     0          
O        O      0.714210000000     0.132675000000     0.000000000000     0          
O        O      0.750000000000     0.182330000000     0.135785000000     0          
O        O      0.700525000000     0.200525000000     0.061675000000     0          
O        O      0.710660000000     0.149960000000     0.149960000000     0          
O        O      0.700475000000     0.200475000000     0.138305000000     0          
Si       Si     0.674955000000     0.218940000000     0.430950000000     0          
Si       Si     0.674870000000     0.218875000000     0.369010000000     0          
O        O      0.666720000000     0.214290000000     0.400000000000     0          
O        O      0.650235000000     0.210995000000     0.450255000000     0          
O        O      0.682740000000     0.250000000000     0.435600000000     0          
O        O      0.632675000000     0.214210000000     0.000000000000     0          
O        O      0.682330000000     0.250000000000     0.364215000000     0          
O        O      0.700525000000     0.200525000000     0.438325000000     0          
O        O      0.649960000000     0.210660000000     0.350040000000     0          
O        O      0.700475000000     0.200475000000     0.361695000000     0          
Si       Si     0.781060000000     0.174955000000     0.430950000000     0          
Si       Si     0.781125000000     0.174870000000     0.369010000000     0          
O        O      0.785710000000     0.166720000000     0.400000000000     0          
O        O      0.789005000000     0.150235000000     0.450255000000     0          
O        O      0.750000000000     0.182740000000     0.435600000000     0          
O        O      0.785790000000     0.132675000000     0.000000000000     0          
O        O      0.750000000000     0.182330000000     0.364215000000     0          
O        O      0.799475000000     0.200525000000     0.438325000000     0          
O        O      0.789340000000     0.149960000000     0.350040000000     0          
O        O      0.799525000000     0.200475000000     0.361695000000     0          
Si       Si     0.718940000000     0.325045000000     0.430950000000     0          
Si       Si     0.718875000000     0.325130000000     0.369010000000     0          
O        O      0.714290000000     0.333280000000     0.400000000000     0          
O        O      0.710995000000     0.349765000000     0.450255000000     0          
O        O      0.750000000000     0.317260000000     0.435600000000     0          
O        O      0.714210000000     0.367325000000     0.000000000000     0          
O        O      0.750000000000     0.317670000000     0.364215000000     0          
O        O      0.700525000000     0.299475000000     0.438325000000     0          
O        O      0.710660000000     0.350040000000     0.350040000000     0          
O        O      0.700475000000     0.299525000000     0.361695000000     0          
Si       Si     0.569050000000     0.174955000000     0.218940000000     0          
Si       Si     0.630990000000     0.174870000000     0.218875000000     0          
O        O      0.600000000000     0.166720000000     0.214290000000     0          
O        O      0.549745000000     0.150235000000     0.210995000000     0          
Si       Si     0.825045000000     0.069050000000     0.218940000000     0          
Si       Si     0.825130000000     0.130990000000     0.218875000000     0          
O        O      0.833280000000     0.100000000000     0.214290000000     0          
O        O      0.849765000000     0.049745000000     0.210995000000     0          
Si       Si     0.930950000000     0.325045000000     0.218940000000     0          
Si       Si     0.869010000000     0.325130000000     0.218875000000     0          
O        O      0.900000000000     0.333280000000     0.214290000000     0          
O        O      0.950255000000     0.349765000000     0.210995000000     0          
Si       Si     0.674955000000     0.430950000000     0.218940000000     0          
Si       Si     0.674870000000     0.369010000000     0.218875000000     0          
O        O      0.666720000000     0.400000000000     0.214290000000     0          
O        O      0.650235000000     0.450255000000     0.210995000000     0          
Si       Si     0.569050000000     0.325045000000     0.281060000000     0          
Si       Si     0.630990000000     0.325130000000     0.281125000000     0          
O        O      0.600000000000     0.333280000000     0.285710000000     0          
O        O      0.549745000000     0.349765000000     0.289005000000     0          
Si       Si     0.674955000000     0.069050000000     0.281060000000     0          
Si       Si     0.674870000000     0.130990000000     0.281125000000     0          
O        O      0.666720000000     0.100000000000     0.285710000000     0          
O        O      0.650235000000     0.049745000000     0.289005000000     0          
Si       Si     0.930950000000     0.174955000000     0.281060000000     0          
Si       Si     0.869010000000     0.174870000000     0.281125000000     0          
O        O      0.900000000000     0.166720000000     0.285710000000     0          
O        O      0.950255000000     0.150235000000     0.289005000000     0          
Si       Si     0.825045000000     0.430950000000     0.281060000000     0          
Si       Si     0.825130000000     0.369010000000     0.281125000000     0          
O        O      0.833280000000     0.400000000000     0.285710000000     0          
O        O      0.849765000000     0.450255000000     0.289005000000     0          
Si       Si     0.718940000000     0.069050000000     0.174955000000     0          
Si       Si     0.718875000000     0.130990000000     0.174870000000     0          
O        O      0.714290000000     0.100000000000     0.166720000000     0          
O        O      0.710995000000     0.049745000000     0.150235000000     0          
Si       Si     0.930950000000     0.218940000000     0.174955000000     0          
Si       Si     0.869010000000     0.218875000000     0.174870000000     0          
O        O      0.900000000000     0.214290000000     0.166720000000     0          
O        O      0.950255000000     0.210995000000     0.150235000000     0          
Si       Si     0.781060000000     0.430950000000     0.174955000000     0          
Si       Si     0.781125000000     0.369010000000     0.174870000000     0          
O        O      0.785710000000     0.400000000000     0.166720000000     0          
O        O      0.789005000000     0.450255000000     0.150235000000     0          
Si       Si     0.569050000000     0.281060000000     0.174955000000     0          
Si       Si     0.630990000000     0.281125000000     0.174870000000     0          
O        O      0.600000000000     0.285710000000     0.166720000000     0          
O        O      0.549745000000     0.289005000000     0.150235000000     0          
Si       Si     0.718940000000     0.430950000000     0.325045000000     0          
Si       Si     0.718875000000     0.369010000000     0.325130000000     0          
O        O      0.714290000000     0.400000000000     0.333280000000     0          
O        O      0.710995000000     0.450255000000     0.349765000000     0          
Si       Si     0.569050000000     0.218940000000     0.325045000000     0          
Si       Si     0.630990000000     0.218875000000     0.325130000000     0          
O        O      0.600000000000     0.214290000000     0.333280000000     0          
O        O      0.549745000000     0.210995000000     0.349765000000     0          
Si       Si     0.781060000000     0.069050000000     0.325045000000     0          
Si       Si     0.781125000000     0.130990000000     0.325130000000     0          
O        O      0.785710000000     0.100000000000     0.333280000000     0          
O        O      0.789005000000     0.049745000000     0.349765000000     0          
Si       Si     0.930950000000     0.281060000000     0.325045000000     0          
Si       Si     0.869010000000     0.281125000000     0.325130000000     0          
O        O      0.900000000000     0.285710000000     0.333280000000     0          
O        O      0.950255000000     0.289005000000     0.349765000000     0          
Si       Si     0.674955000000     0.218940000000     0.069050000000     0          
Si       Si     0.674870000000     0.218875000000     0.130990000000     0          
O        O      0.666720000000     0.214290000000     0.100000000000     0          
O        O      0.650235000000     0.210995000000     0.049745000000     0          
Si       Si     0.674955000000     0.281060000000     0.430950000000     0          
Si       Si     0.674870000000     0.281125000000     0.369010000000     0          
O        O      0.666720000000     0.285710000000     0.400000000000     0          
O        O      0.650235000000     0.289005000000     0.450255000000     0          
Si       Si     0.718940000000     0.174955000000     0.430950000000     0          
Si       Si     0.718875000000     0.174870000000     0.369010000000     0          
O        O      0.714290000000     0.166720000000     0.400000000000     0          
O        O      0.710995000000     0.150235000000     0.450255000000     0          
Si       Si     0.825045000000     0.218940000000     0.430950000000     0          
Si       Si     0.825130000000     0.218875000000     0.369010000000     0          
O        O      0.833280000000     0.214290000000     0.400000000000     0          
O        O      0.849765000000     0.210995000000     0.450255000000     0          
Si       Si     0.781060000000     0.325045000000     0.430950000000     0          
Si       Si     0.781125000000     0.325130000000     0.369010000000     0          
O        O      0.785710000000     0.333280000000     0.400000000000     0          
O        O      0.789005000000     0.349765000000     0.450255000000     0          
Si       Si     0.825045000000     0.281060000000     0.069050000000     0          
Si       Si     0.825130000000     0.281125000000     0.130990000000     0          
O        O      0.833280000000     0.285710000000     0.100000000000     0          
O        O      0.849765000000     0.289005000000     0.049745000000     0          
Si       Si     0.718940000000     0.325045000000     0.069050000000     0          
Si       Si     0.718875000000     0.325130000000     0.130990000000     0          
O        O      0.714290000000     0.333280000000     0.100000000000     0          
O        O      0.710995000000     0.349765000000     0.049745000000     0          
Si       Si     0.781060000000     0.174955000000     0.069050000000     0          
Si       Si     0.781125000000     0.174870000000     0.130990000000     0          
O        O      0.785710000000     0.166720000000     0.100000000000     0          
O        O      0.789005000000     0.150235000000     0.049745000000     0          
Si       Si     0.680950000000     0.075045000000     0.531060000000     0          
Si       Si     0.619010000000     0.075130000000     0.531125000000     0          
Si       Si     0.718915000000     0.125000000000     0.531085000000     0          
O        O      0.650000000000     0.083280000000     0.535710000000     0          
O        O      0.700255000000     0.099765000000     0.539005000000     0          
O        O      0.685600000000     0.067260000000     0.500000000000     0          
O        O      0.750000000000     0.117325000000     0.535790000000     0          
O        O      0.614215000000     0.067670000000     0.500000000000     0          
O        O      0.688325000000     0.049475000000     0.549475000000     0          
O        O      0.600040000000     0.100040000000     0.539340000000     0          
O        O      0.611695000000     0.049525000000     0.549525000000     0          
Si       Si     0.924955000000     0.180950000000     0.531060000000     0          
Si       Si     0.924870000000     0.119010000000     0.531125000000     0          
Si       Si     0.875000000000     0.218915000000     0.531085000000     0          
O        O      0.916720000000     0.150000000000     0.535710000000     0          
O        O      0.900235000000     0.200255000000     0.539005000000     0          
O        O      0.932740000000     0.185600000000     0.500000000000     0          
O        O      0.882675000000     0.250000000000     0.535790000000     0          
O        O      0.932330000000     0.114215000000     0.500000000000     0          
O        O      0.950525000000     0.188325000000     0.549475000000     0          
O        O      0.899960000000     0.100040000000     0.539340000000     0          
O        O      0.950475000000     0.111695000000     0.549525000000     0          
Si       Si     0.819050000000     0.424955000000     0.531060000000     0          
Si       Si     0.880990000000     0.424870000000     0.531125000000     0          
Si       Si     0.781085000000     0.375000000000     0.531085000000     0          
O        O      0.850000000000     0.416720000000     0.535710000000     0          
O        O      0.799745000000     0.400235000000     0.539005000000     0          
O        O      0.814400000000     0.432740000000     0.500000000000     0          
O        O      0.750000000000     0.382675000000     0.535790000000     0          
O        O      0.885785000000     0.432330000000     0.500000000000     0          
O        O      0.811675000000     0.450525000000     0.549475000000     0          
O        O      0.899960000000     0.399960000000     0.539340000000     0          
O        O      0.888305000000     0.450475000000     0.549525000000     0          
Si       Si     0.575045000000     0.319050000000     0.531060000000     0          
Si       Si     0.575130000000     0.380990000000     0.531125000000     0          
Si       Si     0.625000000000     0.281085000000     0.531085000000     0          
O        O      0.583280000000     0.350000000000     0.535710000000     0          
O        O      0.599765000000     0.299745000000     0.539005000000     0          
O        O      0.567260000000     0.314400000000     0.500000000000     0          
O        O      0.617325000000     0.250000000000     0.535790000000     0          
O        O      0.567670000000     0.385785000000     0.500000000000     0          
O        O      0.549475000000     0.311675000000     0.549475000000     0          
O        O      0.600040000000     0.399960000000     0.539340000000     0          
O        O      0.549525000000     0.388305000000     0.549525000000     0          
Si       Si     0.680950000000     0.424955000000     0.968940000000     0          
Si       Si     0.619010000000     0.424870000000     0.968875000000     0          
Si       Si     0.718915000000     0.375000000000     0.968915000000     0          
O        O      0.650000000000     0.416720000000     0.964290000000     0          
O        O      0.700255000000     0.400235000000     0.960995000000     0          
O        O      0.685600000000     0.432740000000     0.500000000000     0          
O        O      0.750000000000     0.382675000000     0.964210000000     0          
O        O      0.614215000000     0.432330000000     0.500000000000     0          
O        O      0.688325000000     0.450525000000     0.950525000000     0          
O        O      0.600040000000     0.399960000000     0.960660000000     0          
O        O      0.611695000000     0.450475000000     0.950475000000     0          
Si       Si     0.575045000000     0.180950000000     0.968940000000     0          
Si       Si     0.575130000000     0.119010000000     0.968875000000     0          
Si       Si     0.625000000000     0.218915000000     0.968915000000     0          
O        O      0.583280000000     0.150000000000     0.964290000000     0          
O        O      0.599765000000     0.200255000000     0.960995000000     0          
O        O      0.567260000000     0.185600000000     0.500000000000     0          
O        O      0.617325000000     0.250000000000     0.964210000000     0          
O        O      0.567670000000     0.114215000000     0.500000000000     0          
O        O      0.549475000000     0.188325000000     0.950525000000     0          
O        O      0.600040000000     0.100040000000     0.960660000000     0          
O        O      0.549525000000     0.111695000000     0.950475000000     0          
Si       Si     0.819050000000     0.075045000000     0.968940000000     0          
Si       Si     0.880990000000     0.075130000000     0.968875000000     0          
Si       Si     0.781085000000     0.125000000000     0.968915000000     0          
O        O      0.850000000000     0.083280000000     0.964290000000     0          
O        O      0.799745000000     0.099765000000     0.960995000000     0          
O        O      0.814400000000     0.067260000000     0.500000000000     0          
O        O      0.750000000000     0.117325000000     0.964210000000     0          
O        O      0.885785000000     0.067670000000     0.500000000000     0          
O        O      0.811675000000     0.049475000000     0.950525000000     0          
O        O      0.899960000000     0.100040000000     0.960660000000     0          
O        O      0.888305000000     0.049525000000     0.950475000000     0          
Si       Si     0.924955000000     0.319050000000     0.968940000000     0          
Si       Si     0.924870000000     0.380990000000     0.968875000000     0          
Si       Si     0.875000000000     0.281085000000     0.968915000000     0          
O        O      0.916720000000     0.350000000000     0.964290000000     0          
O        O      0.900235000000     0.299745000000     0.960995000000     0          
O        O      0.932740000000     0.314400000000     0.500000000000     0          
O        O      0.882675000000     0.250000000000     0.964210000000     0          
O        O      0.932330000000     0.385785000000     0.500000000000     0          
O        O      0.950525000000     0.311675000000     0.950525000000     0          
O        O      0.899960000000     0.399960000000     0.960660000000     0          
O        O      0.950475000000     0.388305000000     0.950475000000     0          
Si       Si     0.531060000000     0.180950000000     0.575045000000     0          
Si       Si     0.531125000000     0.119010000000     0.575130000000     0          
Si       Si     0.531085000000     0.218915000000     0.625000000000     0          
O        O      0.535710000000     0.150000000000     0.583280000000     0          
O        O      0.539005000000     0.200255000000     0.599765000000     0          
O        O      0.500000000000     0.185600000000     0.567260000000     0          
O        O      0.535790000000     0.250000000000     0.617325000000     0          
O        O      0.500000000000     0.114215000000     0.567670000000     0          
O        O      0.549475000000     0.188325000000     0.549475000000     0          
O        O      0.539340000000     0.100040000000     0.600040000000     0          
O        O      0.549525000000     0.111695000000     0.549525000000     0          
Si       Si     0.819050000000     0.031060000000     0.575045000000     0          
Si       Si     0.880990000000     0.031125000000     0.575130000000     0          
Si       Si     0.781085000000     0.031085000000     0.625000000000     0          
O        O      0.850000000000     0.035710000000     0.583280000000     0          
O        O      0.799745000000     0.039005000000     0.599765000000     0          
O        O      0.814400000000     0.000000000000     0.567260000000     0          
O        O      0.750000000000     0.035790000000     0.617325000000     0          
O        O      0.885785000000     0.000000000000     0.567670000000     0          
O        O      0.811675000000     0.049475000000     0.549475000000     0          
O        O      0.899960000000     0.039340000000     0.600040000000     0          
O        O      0.888305000000     0.049525000000     0.549525000000     0          
Si       Si     0.968940000000     0.319050000000     0.575045000000     0          
Si       Si     0.968875000000     0.380990000000     0.575130000000     0          
Si       Si     0.968915000000     0.281085000000     0.625000000000     0          
O        O      0.964290000000     0.350000000000     0.583280000000     0          
O        O      0.960995000000     0.299745000000     0.599765000000     0          
O        O      0.500000000000     0.314400000000     0.567260000000     0          
O        O      0.964210000000     0.250000000000     0.617325000000     0          
O        O      0.500000000000     0.385785000000     0.567670000000     0          
O        O      0.950525000000     0.311675000000     0.549475000000     0          
O        O      0.960660000000     0.399960000000     0.600040000000     0          
O        O      0.950475000000     0.388305000000     0.549525000000     0          
Si       Si     0.680950000000     0.468940000000     0.575045000000     0          
Si       Si     0.619010000000     0.468875000000     0.575130000000     0          
Si       Si     0.718915000000     0.468915000000     0.625000000000     0          
O        O      0.650000000000     0.464290000000     0.583280000000     0          
O        O      0.700255000000     0.460995000000     0.599765000000     0          
O        O      0.685600000000     0.000000000000     0.567260000000     0          
O        O      0.750000000000     0.464210000000     0.617325000000     0          
O        O      0.614215000000     0.000000000000     0.567670000000     0          
O        O      0.688325000000     0.450525000000     0.549475000000     0          
O        O      0.600040000000     0.460660000000     0.600040000000     0          
O        O      0.611695000000     0.450475000000     0.549525000000     0          
Si       Si     0.531060000000     0.319050000000     0.924955000000     0          
Si       Si     0.531125000000     0.380990000000     0.924870000000     0          
Si       Si     0.531085000000     0.281085000000     0.875000000000     0          
O        O      0.535710000000     0.350000000000     0.916720000000     0          
O        O      0.539005000000     0.299745000000     0.900235000000     0          
O        O      0.500000000000     0.314400000000     0.932740000000     0          
O        O      0.535790000000     0.250000000000     0.882675000000     0          
O        O      0.500000000000     0.385785000000     0.932330000000     0          
O        O      0.549475000000     0.311675000000     0.950525000000     0          
O        O      0.539340000000     0.399960000000     0.899960000000     0          
O        O      0.549525000000     0.388305000000     0.950475000000     0          
Si       Si     0.680950000000     0.031060000000     0.924955000000     0          
Si       Si     0.619010000000     0.031125000000     0.924870000000     0          
Si       Si     0.718915000000     0.031085000000     0.875000000000     0          
O        O      0.650000000000     0.035710000000     0.916720000000     0          
O        O      0.700255000000     0.039005000000     0.900235000000     0          
O        O      0.685600000000     0.000000000000     0.932740000000     0          
O        O      0.750000000000     0.035790000000     0.882675000000     0          
O        O      0.614215000000     0.000000000000     0.932330000000     0          
O        O      0.688325000000     0.049475000000     0.950525000000     0          
O        O      0.600040000000     0.039340000000     0.899960000000     0          
O        O      0.611695000000     0.049525000000     0.950475000000     0          
Si       Si     0.968940000000     0.180950000000     0.924955000000     0          
Si       Si     0.968875000000     0.119010000000     0.924870000000     0          
Si       Si     0.968915000000     0.218915000000     0.875000000000     0          
O        O      0.964290000000     0.150000000000     0.916720000000     0          
O        O      0.960995000000     0.200255000000     0.900235000000     0          
O        O      0.500000000000     0.185600000000     0.932740000000     0          
O        O      0.964210000000     0.250000000000     0.882675000000     0          
O        O      0.500000000000     0.114215000000     0.932330000000     0          
O        O      0.950525000000     0.188325000000     0.950525000000     0          
O        O      0.960660000000     0.100040000000     0.899960000000     0          
O        O      0.950475000000     0.111695000000     0.950475000000     0          
Si       Si     0.819050000000     0.468940000000     0.924955000000     0          
Si       Si     0.880990000000     0.468875000000     0.924870000000     0          
Si       Si     0.781085000000     0.468915000000     0.875000000000     0          
O        O      0.850000000000     0.464290000000     0.916720000000     0          
O        O      0.799745000000     0.460995000000     0.900235000000     0          
O        O      0.814400000000     0.000000000000     0.932740000000     0          
O        O      0.750000000000     0.464210000000     0.882675000000     0          
O        O      0.885785000000     0.000000000000     0.932330000000     0          
O        O      0.811675000000     0.450525000000     0.950525000000     0          
O        O      0.899960000000     0.460660000000     0.899960000000     0          
O        O      0.888305000000     0.450475000000     0.950475000000     0          
Si       Si     0.575045000000     0.031060000000     0.680950000000     0          
Si       Si     0.575130000000     0.031125000000     0.619010000000     0          
Si       Si     0.625000000000     0.031085000000     0.718915000000     0          
O        O      0.583280000000     0.035710000000     0.650000000000     0          
O        O      0.599765000000     0.039005000000     0.700255000000     0          
O        O      0.567260000000     0.000000000000     0.685600000000     0          
O        O      0.617325000000     0.035790000000     0.750000000000     0          
O        O      0.567670000000     0.000000000000     0.614215000000     0          
O        O      0.549475000000     0.049475000000     0.688325000000     0          
O        O      0.600040000000     0.039340000000     0.600040000000     0          
O        O      0.549525000000     0.049525000000     0.611695000000     0          
Si       Si     0.575045000000     0.468940000000     0.819050000000     0          
Si       Si     0.575130000000     0.468875000000     0.880990000000     0          
Si       Si     0.625000000000     0.468915000000     0.781085000000     0          
O        O      0.583280000000     0.464290000000     0.850000000000     0          
O        O      0.599765000000     0.460995000000     0.799745000000     0          
O        O      0.567260000000     0.000000000000     0.814400000000     0          
O        O      0.617325000000     0.464210000000     0.750000000000     0          
O        O      0.567670000000     0.000000000000     0.885785000000     0          
O        O      0.549475000000     0.450525000000     0.811675000000     0          
O        O      0.600040000000     0.460660000000     0.899960000000     0          
O        O      0.549525000000     0.450475000000     0.888305000000     0          
Si       Si     0.531060000000     0.075045000000     0.819050000000     0          
Si       Si     0.531125000000     0.075130000000     0.880990000000     0          
Si       Si     0.531085000000     0.125000000000     0.781085000000     0          
O        O      0.535710000000     0.083280000000     0.850000000000     0          
O        O      0.539005000000     0.099765000000     0.799745000000     0          
O        O      0.500000000000     0.067260000000     0.814400000000     0          
O        O      0.535790000000     0.117325000000     0.750000000000     0          
O        O      0.500000000000     0.067670000000     0.885785000000     0          
O        O      0.549475000000     0.049475000000     0.811675000000     0          
O        O      0.539340000000     0.100040000000     0.899960000000     0          
O        O      0.549525000000     0.049525000000     0.888305000000     0          
Si       Si     0.924955000000     0.031060000000     0.819050000000     0          
Si       Si     0.924870000000     0.031125000000     0.880990000000     0          
Si       Si     0.875000000000     0.031085000000     0.781085000000     0          
O        O      0.916720000000     0.035710000000     0.850000000000     0          
O        O      0.900235000000     0.039005000000     0.799745000000     0          
O        O      0.932740000000     0.000000000000     0.814400000000     0          
O        O      0.882675000000     0.035790000000     0.750000000000     0          
O        O      0.932330000000     0.000000000000     0.885785000000     0          
O        O      0.950525000000     0.049475000000     0.811675000000     0          
O        O      0.899960000000     0.039340000000     0.899960000000     0          
O        O      0.950475000000     0.049525000000     0.888305000000     0          
Si       Si     0.968940000000     0.424955000000     0.819050000000     0          
Si       Si     0.968875000000     0.424870000000     0.880990000000     0          
Si       Si     0.968915000000     0.375000000000     0.781085000000     0          
O        O      0.964290000000     0.416720000000     0.850000000000     0          
O        O      0.960995000000     0.400235000000     0.799745000000     0          
O        O      0.500000000000     0.432740000000     0.814400000000     0          
O        O      0.964210000000     0.382675000000     0.750000000000     0          
O        O      0.500000000000     0.432330000000     0.885785000000     0          
O        O      0.950525000000     0.450525000000     0.811675000000     0          
O        O      0.960660000000     0.399960000000     0.899960000000     0          
O        O      0.950475000000     0.450475000000     0.888305000000     0          
Si       Si     0.924955000000     0.468940000000     0.680950000000     0          
Si       Si     0.924870000000     0.468875000000     0.619010000000     0          
Si       Si     0.875000000000     0.468915000000     0.718915000000     0          
O        O      0.916720000000     0.464290000000     0.650000000000     0          
O        O      0.900235000000     0.460995000000     0.700255000000     0          
O        O      0.932740000000     0.000000000000     0.685600000000     0          
O        O      0.882675000000     0.464210000000     0.750000000000     0          
O        O      0.932330000000     0.000000000000     0.614215000000     0          
O        O      0.950525000000     0.450525000000     0.688325000000     0          
O        O      0.899960000000     0.460660000000     0.600040000000     0          
O        O      0.950475000000     0.450475000000     0.611695000000     0          
Si       Si     0.531060000000     0.424955000000     0.680950000000     0          
Si       Si     0.531125000000     0.424870000000     0.619010000000     0          
Si       Si     0.531085000000     0.375000000000     0.718915000000     0          
O        O      0.535710000000     0.416720000000     0.650000000000     0          
O        O      0.539005000000     0.400235000000     0.700255000000     0          
O        O      0.500000000000     0.432740000000     0.685600000000     0          
O        O      0.535790000000     0.382675000000     0.750000000000     0          
O        O      0.500000000000     0.432330000000     0.614215000000     0          
O        O      0.549475000000     0.450525000000     0.688325000000     0          
O        O      0.539340000000     0.399960000000     0.600040000000     0          
O        O      0.549525000000     0.450475000000     0.611695000000     0          
Si       Si     0.968940000000     0.075045000000     0.680950000000     0          
Si       Si     0.968875000000     0.075130000000     0.619010000000     0          
Si       Si     0.968915000000     0.125000000000     0.718915000000     0          
O        O      0.964290000000     0.083280000000     0.650000000000     0          
O        O      0.960995000000     0.099765000000     0.700255000000     0          
O        O      0.500000000000     0.067260000000     0.685600000000     0          
O        O      0.964210000000     0.117325000000     0.750000000000     0          
O        O      0.500000000000     0.067670000000     0.614215000000     0          
O        O      0.950525000000     0.049475000000     0.688325000000     0          
O        O      0.960660000000     0.100040000000     0.600040000000     0          
O        O      0.950475000000     0.049525000000     0.611695000000     0          
Si       Si     0.819050000000     0.424955000000     0.968940000000     0          
Si       Si     0.880990000000     0.424870000000     0.968875000000     0          
Si       Si     0.781085000000     0.375000000000     0.968915000000     0          
O        O      0.850000000000     0.416720000000     0.964290000000     0          
O        O      0.799745000000     0.400235000000     0.960995000000     0          
Si       Si     0.575045000000     0.319050000000     0.968940000000     0          
Si       Si     0.575130000000     0.380990000000     0.968875000000     0          
Si       Si     0.625000000000     0.281085000000     0.968915000000     0          
O        O      0.583280000000     0.350000000000     0.964290000000     0          
O        O      0.599765000000     0.299745000000     0.960995000000     0          
Si       Si     0.680950000000     0.075045000000     0.968940000000     0          
Si       Si     0.619010000000     0.075130000000     0.968875000000     0          
Si       Si     0.718915000000     0.125000000000     0.968915000000     0          
O        O      0.650000000000     0.083280000000     0.964290000000     0          
O        O      0.700255000000     0.099765000000     0.960995000000     0          
Si       Si     0.924955000000     0.180950000000     0.968940000000     0          
Si       Si     0.924870000000     0.119010000000     0.968875000000     0          
Si       Si     0.875000000000     0.218915000000     0.968915000000     0          
O        O      0.916720000000     0.150000000000     0.964290000000     0          
O        O      0.900235000000     0.200255000000     0.960995000000     0          
Si       Si     0.819050000000     0.075045000000     0.531060000000     0          
Si       Si     0.880990000000     0.075130000000     0.531125000000     0          
Si       Si     0.781085000000     0.125000000000     0.531085000000     0          
O        O      0.850000000000     0.083280000000     0.535710000000     0          
O        O      0.799745000000     0.099765000000     0.539005000000     0          
Si       Si     0.924955000000     0.319050000000     0.531060000000     0          
Si       Si     0.924870000000     0.380990000000     0.531125000000     0          
Si       Si     0.875000000000     0.281085000000     0.531085000000     0          
O        O      0.916720000000     0.350000000000     0.535710000000     0          
O        O      0.900235000000     0.299745000000     0.539005000000     0          
Si       Si     0.680950000000     0.424955000000     0.531060000000     0          
Si       Si     0.619010000000     0.424870000000     0.531125000000     0          
Si       Si     0.718915000000     0.375000000000     0.531085000000     0          
O        O      0.650000000000     0.416720000000     0.535710000000     0          
O        O      0.700255000000     0.400235000000     0.539005000000     0          
Si       Si     0.575045000000     0.180950000000     0.531060000000     0          
Si       Si     0.575130000000     0.119010000000     0.531125000000     0          
Si       Si     0.625000000000     0.218915000000     0.531085000000     0          
O        O      0.583280000000     0.150000000000     0.535710000000     0          
O        O      0.599765000000     0.200255000000     0.539005000000     0          
Si       Si     0.968940000000     0.319050000000     0.924955000000     0          
Si       Si     0.968875000000     0.380990000000     0.924870000000     0          
Si       Si     0.968915000000     0.281085000000     0.875000000000     0          
O        O      0.964290000000     0.350000000000     0.916720000000     0          
O        O      0.960995000000     0.299745000000     0.900235000000     0          
Si       Si     0.680950000000     0.468940000000     0.924955000000     0          
Si       Si     0.619010000000     0.468875000000     0.924870000000     0          
Si       Si     0.718915000000     0.468915000000     0.875000000000     0          
O        O      0.650000000000     0.464290000000     0.916720000000     0          
O        O      0.700255000000     0.460995000000     0.900235000000     0          
Si       Si     0.531060000000     0.180950000000     0.924955000000     0          
Si       Si     0.531125000000     0.119010000000     0.924870000000     0          
Si       Si     0.531085000000     0.218915000000     0.875000000000     0          
O        O      0.535710000000     0.150000000000     0.916720000000     0          
O        O      0.539005000000     0.200255000000     0.900235000000     0          
Si       Si     0.819050000000     0.031060000000     0.924955000000     0          
Si       Si     0.880990000000     0.031125000000     0.924870000000     0          
Si       Si     0.781085000000     0.031085000000     0.875000000000     0          
O        O      0.850000000000     0.035710000000     0.916720000000     0          
O        O      0.799745000000     0.039005000000     0.900235000000     0          
Si       Si     0.968940000000     0.180950000000     0.575045000000     0          
Si       Si     0.968875000000     0.119010000000     0.575130000000     0          
Si       Si     0.968915000000     0.218915000000     0.625000000000     0          
O        O      0.964290000000     0.150000000000     0.583280000000     0          
O        O      0.960995000000     0.200255000000     0.599765000000     0          
Si       Si     0.819050000000     0.468940000000     0.575045000000     0          
Si       Si     0.880990000000     0.468875000000     0.575130000000     0          
Si       Si     0.781085000000     0.468915000000     0.625000000000     0          
O        O      0.850000000000     0.464290000000     0.583280000000     0          
O        O      0.799745000000     0.460995000000     0.599765000000     0          
Si       Si     0.531060000000     0.319050000000     0.575045000000     0          
Si       Si     0.531125000000     0.380990000000     0.575130000000     0          
Si       Si     0.531085000000     0.281085000000     0.625000000000     0          
O        O      0.535710000000     0.350000000000     0.583280000000     0          
O        O      0.539005000000     0.299745000000     0.599765000000     0          
Si       Si     0.680950000000     0.031060000000     0.575045000000     0          
Si       Si     0.619010000000     0.031125000000     0.575130000000     0          
Si       Si     0.718915000000     0.031085000000     0.625000000000     0          
O        O      0.650000000000     0.035710000000     0.583280000000     0          
O        O      0.700255000000     0.039005000000     0.599765000000     0          
Si       Si     0.924955000000     0.468940000000     0.819050000000     0          
Si       Si     0.924870000000     0.468875000000     0.880990000000     0          
Si       Si     0.875000000000     0.468915000000     0.781085000000     0          
O        O      0.916720000000     0.464290000000     0.850000000000     0          
O        O      0.900235000000     0.460995000000     0.799745000000     0          
Si       Si     0.924955000000     0.031060000000     0.680950000000     0          
Si       Si     0.924870000000     0.031125000000     0.619010000000     0          
Si       Si     0.875000000000     0.031085000000     0.718915000000     0          
O        O      0.916720000000     0.035710000000     0.650000000000     0          
O        O      0.900235000000     0.039005000000     0.700255000000     0          
Si       Si     0.968940000000     0.424955000000     0.680950000000     0          
Si       Si     0.968875000000     0.424870000000     0.619010000000     0          
Si       Si     0.968915000000     0.375000000000     0.718915000000     0          
O        O      0.964290000000     0.416720000000     0.650000000000     0          
O        O      0.960995000000     0.400235000000     0.700255000000     0          
Si       Si     0.575045000000     0.468940000000     0.680950000000     0          
Si       Si     0.575130000000     0.468875000000     0.619010000000     0          
Si       Si     0.625000000000     0.468915000000     0.718915000000     0          
O        O      0.583280000000     0.464290000000     0.650000000000     0          
O        O      0.599765000000     0.460995000000     0.700255000000     0          
Si       Si     0.531060000000     0.075045000000     0.680950000000     0          
Si       Si     0.531125000000     0.075130000000     0.619010000000     0          
Si       Si     0.531085000000     0.125000000000     0.718915000000     0          
O        O      0.535710000000     0.083280000000     0.650000000000     0          
O        O      0.539005000000     0.099765000000     0.700255000000     0          
Si       Si     0.575045000000     0.031060000000     0.819050000000     0          
Si       Si     0.575130000000     0.031125000000     0.880990000000     0          
Si       Si     0.625000000000     0.031085000000     0.781085000000     0          
O        O      0.583280000000     0.035710000000     0.850000000000     0          
O        O      0.599765000000     0.039005000000     0.799745000000     0          
Si       Si     0.968940000000     0.075045000000     0.819050000000     0          
Si       Si     0.968875000000     0.075130000000     0.880990000000     0          
Si       Si     0.968915000000     0.125000000000     0.781085000000     0          
O        O      0.964290000000     0.083280000000     0.850000000000     0          
O        O      0.960995000000     0.099765000000     0.799745000000     0          
Si       Si     0.531060000000     0.424955000000     0.819050000000     0          
Si       Si     0.531125000000     0.424870000000     0.880990000000     0          
Si       Si     0.531085000000     0.375000000000     0.781085000000     0          
O        O      0.535710000000     0.416720000000     0.850000000000     0          
O        O      0.539005000000     0.400235000000     0.799745000000     0          
Si       Si     0.930950000000     0.325045000000     0.781060000000     0          
Si       Si     0.869010000000     0.325130000000     0.781125000000     0          
O        O      0.900000000000     0.333280000000     0.785710000000     0          
O        O      0.950255000000     0.349765000000     0.789005000000     0          
O        O      0.935600000000     0.317260000000     0.750000000000     0          
O        O      0.500000000000     0.367325000000     0.785790000000     0          
O        O      0.864215000000     0.317670000000     0.750000000000     0          
O        O      0.938325000000     0.299475000000     0.799475000000     0          
O        O      0.850040000000     0.350040000000     0.789340000000     0          
O        O      0.861695000000     0.299525000000     0.799525000000     0          
Si       Si     0.674955000000     0.430950000000     0.781060000000     0          
Si       Si     0.674870000000     0.369010000000     0.781125000000     0          
O        O      0.666720000000     0.400000000000     0.785710000000     0          
O        O      0.650235000000     0.450255000000     0.789005000000     0          
O        O      0.682740000000     0.435600000000     0.750000000000     0          
O        O      0.632675000000     0.000000000000     0.785790000000     0          
O        O      0.682330000000     0.364215000000     0.750000000000     0          
O        O      0.700525000000     0.438325000000     0.799475000000     0          
O        O      0.649960000000     0.350040000000     0.789340000000     0          
O        O      0.700475000000     0.361695000000     0.799525000000     0          
Si       Si     0.569050000000     0.174955000000     0.781060000000     0          
Si       Si     0.630990000000     0.174870000000     0.781125000000     0          
O        O      0.600000000000     0.166720000000     0.785710000000     0          
O        O      0.549745000000     0.150235000000     0.789005000000     0          
O        O      0.564400000000     0.182740000000     0.750000000000     0          
O        O      0.500000000000     0.132675000000     0.785790000000     0          
O        O      0.635785000000     0.182330000000     0.750000000000     0          
O        O      0.561675000000     0.200525000000     0.799475000000     0          
O        O      0.649960000000     0.149960000000     0.789340000000     0          
O        O      0.638305000000     0.200475000000     0.799525000000     0          
Si       Si     0.825045000000     0.069050000000     0.781060000000     0          
Si       Si     0.825130000000     0.130990000000     0.781125000000     0          
O        O      0.833280000000     0.100000000000     0.785710000000     0          
O        O      0.849765000000     0.049745000000     0.789005000000     0          
O        O      0.817260000000     0.064400000000     0.750000000000     0          
O        O      0.867325000000     0.000000000000     0.785790000000     0          
O        O      0.817670000000     0.135785000000     0.750000000000     0          
O        O      0.799475000000     0.061675000000     0.799475000000     0          
O        O      0.850040000000     0.149960000000     0.789340000000     0          
O        O      0.799525000000     0.138305000000     0.799525000000     0          
Si       Si     0.930950000000     0.174955000000     0.718940000000     0          
Si       Si     0.869010000000     0.174870000000     0.718875000000     0          
O        O      0.900000000000     0.166720000000     0.714290000000     0          
O        O      0.950255000000     0.150235000000     0.710995000000     0          
O        O      0.935600000000     0.182740000000     0.750000000000     0          
O        O      0.500000000000     0.132675000000     0.714210000000     0          
O        O      0.864215000000     0.182330000000     0.750000000000     0          
O        O      0.938325000000     0.200525000000     0.700525000000     0          
O        O      0.850040000000     0.149960000000     0.710660000000     0          
O        O      0.861695000000     0.200475000000     0.700475000000     0          
Si       Si     0.825045000000     0.430950000000     0.718940000000     0          
Si       Si     0.825130000000     0.369010000000     0.718875000000     0          
O        O      0.833280000000     0.400000000000     0.714290000000     0          
O        O      0.849765000000     0.450255000000     0.710995000000     0          
O        O      0.817260000000     0.435600000000     0.750000000000     0          
O        O      0.867325000000     0.000000000000     0.714210000000     0          
O        O      0.817670000000     0.364215000000     0.750000000000     0          
O        O      0.799475000000     0.438325000000     0.700525000000     0          
O        O      0.850040000000     0.350040000000     0.710660000000     0          
O        O      0.799525000000     0.361695000000     0.700475000000     0          
Si       Si     0.569050000000     0.325045000000     0.718940000000     0          
Si       Si     0.630990000000     0.325130000000     0.718875000000     0          
O        O      0.600000000000     0.333280000000     0.714290000000     0          
O        O      0.549745000000     0.349765000000     0.710995000000     0          
O        O      0.564400000000     0.317260000000     0.750000000000     0          
O        O      0.500000000000     0.367325000000     0.714210000000     0          
O        O      0.635785000000     0.317670000000     0.750000000000     0          
O        O      0.561675000000     0.299475000000     0.700525000000     0          
O        O      0.649960000000     0.350040000000     0.710660000000     0          
O        O      0.638305000000     0.299525000000     0.700475000000     0          
Si       Si     0.674955000000     0.069050000000     0.718940000000     0          
Si       Si     0.674870000000     0.130990000000     0.718875000000     0          
O        O      0.666720000000     0.100000000000     0.714290000000     0          
O        O      0.650235000000     0.049745000000     0.710995000000     0          
O        O      0.682740000000     0.064400000000     0.750000000000     0          
O        O      0.632675000000     0.000000000000     0.714210000000     0          
O        O      0.682330000000     0.135785000000     0.750000000000     0          
O        O      0.700525000000     0.061675000000     0.700525000000     0          
O        O      0.649960000000     0.149960000000     0.710660000000     0          
O        O      0.700475000000     0.138305000000     0.700475000000     0          
Si       Si     0.781060000000     0.430950000000     0.825045000000     0          
Si       Si     0.781125000000     0.369010000000     0.825130000000     0          
O        O      0.785710000000     0.400000000000     0.833280000000     0          
O        O      0.789005000000     0.450255000000     0.849765000000     0          
O        O      0.750000000000     0.435600000000     0.817260000000     0          
O        O      0.785790000000     0.000000000000     0.867325000000     0          
O        O      0.750000000000     0.364215000000     0.817670000000     0          
O        O      0.799475000000     0.438325000000     0.799475000000     0          
O        O      0.789340000000     0.350040000000     0.850040000000     0          
O        O      0.799525000000     0.361695000000     0.799525000000     0          
Si       Si     0.569050000000     0.281060000000     0.825045000000     0          
Si       Si     0.630990000000     0.281125000000     0.825130000000     0          
O        O      0.600000000000     0.285710000000     0.833280000000     0          
O        O      0.549745000000     0.289005000000     0.849765000000     0          
O        O      0.564400000000     0.250000000000     0.817260000000     0          
O        O      0.500000000000     0.285790000000     0.867325000000     0          
O        O      0.635785000000     0.250000000000     0.817670000000     0          
O        O      0.561675000000     0.299475000000     0.799475000000     0          
O        O      0.649960000000     0.289340000000     0.850040000000     0          
O        O      0.638305000000     0.299525000000     0.799525000000     0          
Si       Si     0.718940000000     0.069050000000     0.825045000000     0          
Si       Si     0.718875000000     0.130990000000     0.825130000000     0          
O        O      0.714290000000     0.100000000000     0.833280000000     0          
O        O      0.710995000000     0.049745000000     0.849765000000     0          
O        O      0.750000000000     0.064400000000     0.817260000000     0          
O        O      0.714210000000     0.000000000000     0.867325000000     0          
O        O      0.750000000000     0.135785000000     0.817670000000     0          
O        O      0.700525000000     0.061675000000     0.799475000000     0          
O        O      0.710660000000     0.149960000000     0.850040000000     0          
O        O      0.700475000000     0.138305000000     0.799525000000     0          
Si       Si     0.930950000000     0.218940000000     0.825045000000     0          
Si       Si     0.869010000000     0.218875000000     0.825130000000     0          
O        O      0.900000000000     0.214290000000     0.833280000000     0          
O        O      0.950255000000     0.210995000000     0.849765000000     0          
O        O      0.935600000000     0.250000000000     0.817260000000     0          
O        O      0.500000000000     0.214210000000     0.867325000000     0          
O        O      0.864215000000     0.250000000000     0.817670000000     0          
O        O      0.938325000000     0.200525000000     0.799475000000     0          
O        O      0.850040000000     0.210660000000     0.850040000000     0          
O        O      0.861695000000     0.200475000000     0.799525000000     0          
Si       Si     0.781060000000     0.069050000000     0.674955000000     0          
Si       Si     0.781125000000     0.130990000000     0.674870000000     0          
O        O      0.785710000000     0.100000000000     0.666720000000     0          
O        O      0.789005000000     0.049745000000     0.650235000000     0          
O        O      0.750000000000     0.064400000000     0.682740000000     0          
O        O      0.785790000000     0.000000000000     0.632675000000     0          
O        O      0.750000000000     0.135785000000     0.682330000000     0          
O        O      0.799475000000     0.061675000000     0.700525000000     0          
O        O      0.789340000000     0.149960000000     0.649960000000     0          
O        O      0.799525000000     0.138305000000     0.700475000000     0          
Si       Si     0.930950000000     0.281060000000     0.674955000000     0          
Si       Si     0.869010000000     0.281125000000     0.674870000000     0          
O        O      0.900000000000     0.285710000000     0.666720000000     0          
O        O      0.950255000000     0.289005000000     0.650235000000     0          
O        O      0.935600000000     0.250000000000     0.682740000000     0          
O        O      0.500000000000     0.285790000000     0.632675000000     0          
O        O      0.864215000000     0.250000000000     0.682330000000     0          
O        O      0.938325000000     0.299475000000     0.700525000000     0          
O        O      0.850040000000     0.289340000000     0.649960000000     0          
O        O      0.861695000000     0.299525000000     0.700475000000     0          
Si       Si     0.718940000000     0.430950000000     0.674955000000     0          
Si       Si     0.718875000000     0.369010000000     0.674870000000     0          
O        O      0.714290000000     0.400000000000     0.666720000000     0          
O        O      0.710995000000     0.450255000000     0.650235000000     0          
O        O      0.750000000000     0.435600000000     0.682740000000     0          
O        O      0.714210000000     0.000000000000     0.632675000000     0          
O        O      0.750000000000     0.364215000000     0.682330000000     0          
O        O      0.700525000000     0.438325000000     0.700525000000     0          
O        O      0.710660000000     0.350040000000     0.649960000000     0          
O        O      0.700475000000     0.361695000000     0.700475000000     0          
Si       Si     0.569050000000     0.218940000000     0.674955000000     0          
Si       Si     0.630990000000     0.218875000000     0.674870000000     0          
O        O      0.600000000000     0.214290000000     0.666720000000     0          
O        O      0.549745000000     0.210995000000     0.650235000000     0          
O        O      0.564400000000     0.250000000000     0.682740000000     0          
O        O      0.500000000000     0.214210000000     0.632675000000     0          
O        O      0.635785000000     0.250000000000     0.682330000000     0          
O        O      0.561675000000     0.200525000000     0.700525000000     0          
O        O      0.649960000000     0.210660000000     0.649960000000     0          
O        O      0.638305000000     0.200475000000     0.700475000000     0          
Si       Si     0.825045000000     0.281060000000     0.930950000000     0          
Si       Si     0.825130000000     0.281125000000     0.869010000000     0          
O        O      0.833280000000     0.285710000000     0.900000000000     0          
O        O      0.849765000000     0.289005000000     0.950255000000     0          
O        O      0.817260000000     0.250000000000     0.935600000000     0          
O        O      0.867325000000     0.285790000000     0.500000000000     0          
O        O      0.817670000000     0.250000000000     0.864215000000     0          
O        O      0.799475000000     0.299475000000     0.938325000000     0          
O        O      0.850040000000     0.289340000000     0.850040000000     0          
O        O      0.799525000000     0.299525000000     0.861695000000     0          
Si       Si     0.825045000000     0.218940000000     0.569050000000     0          
Si       Si     0.825130000000     0.218875000000     0.630990000000     0          
O        O      0.833280000000     0.214290000000     0.600000000000     0          
O        O      0.849765000000     0.210995000000     0.549745000000     0          
O        O      0.817260000000     0.250000000000     0.564400000000     0          
O        O      0.867325000000     0.214210000000     0.500000000000     0          
O        O      0.817670000000     0.250000000000     0.635785000000     0          
O        O      0.799475000000     0.200525000000     0.561675000000     0          
O        O      0.850040000000     0.210660000000     0.649960000000     0          
O        O      0.799525000000     0.200475000000     0.638305000000     0          
Si       Si     0.781060000000     0.325045000000     0.569050000000     0          
Si       Si     0.781125000000     0.325130000000     0.630990000000     0          
O        O      0.785710000000     0.333280000000     0.600000000000     0          
O        O      0.789005000000     0.349765000000     0.549745000000     0          
O        O      0.750000000000     0.317260000000     0.564400000000     0          
O        O      0.785790000000     0.367325000000     0.500000000000     0          
O        O      0.750000000000     0.317670000000     0.635785000000     0          
O        O      0.799475000000     0.299475000000     0.561675000000     0          
O        O      0.789340000000     0.350040000000     0.649960000000     0          
O        O      0.799525000000     0.299525000000     0.638305000000     0          
Si       Si     0.674955000000     0.281060000000     0.569050000000     0          
Si       Si     0.674870000000     0.281125000000     0.630990000000     0          
O        O      0.666720000000     0.285710000000     0.600000000000     0          
O        O      0.650235000000     0.289005000000     0.549745000000     0          
O        O      0.682740000000     0.250000000000     0.564400000000     0          
O        O      0.632675000000     0.285790000000     0.500000000000     0          
O        O      0.682330000000     0.250000000000     0.635785000000     0          
O        O      0.700525000000     0.299475000000     0.561675000000     0          
O        O      0.649960000000     0.289340000000     0.649960000000     0          
O        O      0.700475000000     0.299525000000     0.638305000000     0          
Si       Si     0.718940000000     0.174955000000     0.569050000000     0          
Si       Si     0.718875000000     0.174870000000     0.630990000000     0          
O        O      0.714290000000     0.166720000000     0.600000000000     0          
O        O      0.710995000000     0.150235000000     0.549745000000     0          
O        O      0.750000000000     0.182740000000     0.564400000000     0          
O        O      0.714210000000     0.132675000000     0.500000000000     0          
O        O      0.750000000000     0.182330000000     0.635785000000     0          
O        O      0.700525000000     0.200525000000     0.561675000000     0          
O        O      0.710660000000     0.149960000000     0.649960000000     0          
O        O      0.700475000000     0.200475000000     0.638305000000     0          
Si       Si     0.674955000000     0.218940000000     0.930950000000     0          
Si       Si     0.674870000000     0.218875000000     0.869010000000     0          
O        O      0.666720000000     0.214290000000     0.900000000000     0          
O        O      0.650235000000     0.210995000000     0.950255000000     0          
O        O      0.682740000000     0.250000000000     0.935600000000     0          
O        O      0.632675000000     0.214210000000     0.500000000000     0          
O        O      0.682330000000     0.250000000000     0.864215000000     0          
O        O      0.700525000000     0.200525000000     0.938325000000     0          
O        O      0.649960000000     0.210660000000     0.850040000000     0          
O        O      0.700475000000     0.200475000000     0.861695000000     0          
Si       Si     0.781060000000     0.174955000000     0.930950000000     0          
Si       Si     0.781125000000     0.174870000000     0.869010000000     0          
O        O      0.785710000000     0.166720000000     0.900000000000     0          
O        O      0.789005000000     0.150235000000     0.950255000000     0          
O        O      0.750000000000     0.182740000000     0.935600000000     0          
O        O      0.785790000000     0.132675000000     0.500000000000     0          
O        O      0.750000000000     0.182330000000     0.864215000000     0          
O        O      0.799475000000     0.200525000000     0.938325000000     0          
O        O      0.789340000000     0.149960000000     0.850040000000     0          
O        O      0.799525000000     0.200475000000     0.861695000000     0          
Si       Si     0.718940000000     0.325045000000     0.930950000000     0          
Si       Si     0.718875000000     0.325130000000     0.869010000000     0          
O        O      0.714290000000     0.333280000000     0.900000000000     0          
O        O      0.710995000000     0.349765000000     0.950255000000     0          
O        O      0.750000000000     0.317260000000     0.935600000000     0          
O        O      0.714210000000     0.367325000000     0.500000000000     0          
O        O      0.750000000000     0.317670000000     0.864215000000     0          
O        O      0.700525000000     0.299475000000     0.938325000000     0          
O        O      0.710660000000     0.350040000000     0.850040000000     0          
O        O      0.700475000000     0.299525000000     0.861695000000     0          
Si       Si     0.569050000000     0.174955000000     0.718940000000     0          
Si       Si     0.630990000000     0.174870000000     0.718875000000     0          
O        O      0.600000000000     0.166720000000     0.714290000000     0          
O        O      0.549745000000     0.150235000000     0.710995000000     0          
Si       Si     0.825045000000     0.069050000000     0.718940000000     0          
Si       Si     0.825130000000     0.130990000000     0.718875000000     0          
O        O      0.833280000000     0.100000000000     0.714290000000     0          
O        O      0.849765000000     0.049745000000     0.710995000000     0          
Si       Si     0.930950000000     0.325045000000     0.718940000000     0          
Si       Si     0.869010000000     0.325130000000     0.718875000000     0          
O        O      0.900000000000     0.333280000000     0.714290000000     0          
O        O      0.950255000000     0.349765000000     0.710995000000     0          
Si       Si     0.674955000000     0.430950000000     0.718940000000     0          
Si       Si     0.674870000000     0.369010000000     0.718875000000     0          
O        O      0.666720000000     0.400000000000     0.714290000000     0          
O        O      0.650235000000     0.450255000000     0.710995000000     0          
Si       Si     0.569050000000     0.325045000000     0.781060000000     0          
Si       Si     0.630990000000     0.325130000000     0.781125000000     0          
O        O      0.600000000000     0.333280000000     0.785710000000     0          
O        O      0.549745000000     0.349765000000     0.789005000000     0          
Si       Si     0.674955000000     0.069050000000     0.781060000000     0          
Si       Si     0.674870000000     0.130990000000     0.781125000000     0          
O        O      0.666720000000     0.100000000000     0.785710000000     0          
O        O      0.650235000000     0.049745000000     0.789005000000     0          
Si       Si     0.930950000000     0.174955000000     0.781060000000     0          
Si       Si     0.869010000000     0.174870000000     0.781125000000     0          
O        O      0.900000000000     0.166720000000     0.785710000000     0          
O        O      0.950255000000     0.150235000000     0.789005000000     0          
Si       Si     0.825045000000     0.430950000000     0.781060000000     0          
Si       Si     0.825130000000     0.369010000000     0.781125000000     0          
O        O      0.833280000000     0.400000000000     0.785710000000     0          
O        O      0.849765000000     0.450255000000     0.789005000000     0          
Si       Si     0.718940000000     0.069050000000     0.674955000000     0          
Si       Si     0.718875000000     0.130990000000     0.674870000000     0          
O        O      0.714290000000     0.100000000000     0.666720000000     0          
O        O      0.710995000000     0.049745000000     0.650235000000     0          
Si       Si     0.930950000000     0.218940000000     0.674955000000     0          
Si       Si     0.869010000000     0.218875000000     0.674870000000     0          
O        O      0.900000000000     0.214290000000     0.666720000000     0          
O        O      0.950255000000     0.210995000000     0.650235000000     0          
Si       Si     0.781060000000     0.430950000000     0.674955000000     0          
Si       Si     0.781125000000     0.369010000000     0.674870000000     0          
O        O      0.785710000000     0.400000000000     0.666720000000     0          
O        O      0.789005000000     0.450255000000     0.650235000000     0          
Si       Si     0.569050000000     0.281060000000     0.674955000000     0          
Si       Si     0.630990000000     0.281125000000     0.674870000000     0          
O        O      0.600000000000     0.285710000000     0.666720000000     0          
O        O      0.549745000000     0.289005000000     0.650235000000     0          
Si       Si     0.718940000000     0.430950000000     0.825045000000     0          
Si       Si     0.718875000000     0.369010000000     0.825130000000     0          
O        O      0.714290000000     0.400000000000     0.833280000000     0          
O        O      0.710995000000     0.450255000000     0.849765000000     0          
Si       Si     0.569050000000     0.218940000000     0.825045000000     0          
Si       Si     0.630990000000     0.218875000000     0.825130000000     0          
O        O      0.600000000000     0.214290000000     0.833280000000     0          
O        O      0.549745000000     0.210995000000     0.849765000000     0          
Si       Si     0.781060000000     0.069050000000     0.825045000000     0          
Si       Si     0.781125000000     0.130990000000     0.825130000000     0          
O        O      0.785710000000     0.100000000000     0.833280000000     0          
O        O      0.789005000000     0.049745000000     0.849765000000     0          
Si       Si     0.930950000000     0.281060000000     0.825045000000     0          
Si       Si     0.869010000000     0.281125000000     0.825130000000     0          
O        O      0.900000000000     0.285710000000     0.833280000000     0          
O        O      0.950255000000     0.289005000000     0.849765000000     0          
Si       Si     0.674955000000     0.218940000000     0.569050000000     0          
Si       Si     0.674870000000     0.218875000000     0.630990000000     0          
O        O      0.666720000000     0.214290000000     0.600000000000     0          
O        O      0.650235000000     0.210995000000     0.549745000000     0          
Si       Si     0.674955000000     0.281060000000     0.930950000000     0          
Si       Si     0.674870000000     0.281125000000     0.869010000000     0          
O        O      0.666720000000     0.285710000000     0.900000000000     0          
O        O      0.650235000000     0.289005000000     0.950255000000     0          
Si       Si     0.718940000000     0.174955000000     0.930950000000     0          
Si       Si     0.718875000000     0.174870000000     0.869010000000     0          
O        O      0.714290000000     0.166720000000     0.900000000000     0          
O        O      0.710995000000     0.150235000000     0.950255000000     0          
Si       Si     0.825045000000     0.218940000000     0.930950000000     0          
Si       Si     0.825130000000     0.218875000000     0.869010000000     0          
O        O      0.833280000000     0.214290000000     0.900000000000     0          
O        O      0.849765000000     0.210995000000     0.950255000000     0          
Si       Si     0.781060000000     0.325045000000     0.930950000000     0          
Si       Si     0.781125000000     0.325130000000     0.869010000000     0          
O        O      0.785710000000     0.333280000000     0.900000000000     0          
O        O      0.789005000000     0.349765000000     0.950255000000     0          
Si       Si     0.825045000000     0.281060000000     0.569050000000     0          
Si       Si     0.825130000000     0.281125000000     0.630990000000     0          
O        O      0.833280000000     0.285710000000     0.600000000000     0          
O        O      0.849765000000     0.289005000000     0.549745000000     0          
Si       Si     0.718940000000     0.325045000000     0.569050000000     0          
Si       Si     0.718875000000     0.325130000000     0.630990000000     0          
O        O      0.714290000000     0.333280000000     0.600000000000     0          
O        O      0.710995000000     0.349765000000     0.549745000000     0          
Si       Si     0.781060000000     0.174955000000     0.569050000000     0          
Si       Si     0.781125000000     0.174870000000     0.630990000000     0          
O        O      0.785710000000     0.166720000000     0.600000000000     0          
O        O      0.789005000000     0.150235000000     0.549745000000     0          
Si       Si     0.680950000000     0.575045000000     0.031060000000     0          
Si       Si     0.619010000000     0.575130000000     0.031125000000     0          
Si       Si     0.718915000000     0.625000000000     0.031085000000     0          
O        O      0.650000000000     0.583280000000     0.035710000000     0          
O        O      0.700255000000     0.599765000000     0.039005000000     0          
O        O      0.685600000000     0.567260000000     0.000000000000     0          
O        O      0.750000000000     0.617325000000     0.035790000000     0          
O        O      0.614215000000     0.567670000000     0.000000000000     0          
O        O      0.688325000000     0.549475000000     0.049475000000     0          
O        O      0.600040000000     0.600040000000     0.039340000000     0          
O        O      0.611695000000     0.549525000000     0.049525000000     0          
Si       Si     0.924955000000     0.680950000000     0.031060000000     0          
Si       Si     0.924870000000     0.619010000000     0.031125000000     0          
Si       Si     0.875000000000     0.718915000000     0.031085000000     0          
O        O      0.916720000000     0.650000000000     0.035710000000     0          
O        O      0.900235000000     0.700255000000     0.039005000000     0          
O        O      0.932740000000     0.685600000000     0.000000000000     0          
O        O      0.882675000000     0.750000000000     0.035790000000     0          
O        O      0.932330000000     0.614215000000     0.000000000000     0          
O        O      0.950525000000     0.688325000000     0.049475000000     0          
O        O      0.899960000000     0.600040000000     0.039340000000     0          
O        O      0.950475000000     0.611695000000     0.049525000000     0          
Si       Si     0.819050000000     0.924955000000     0.031060000000     0          
Si       Si     0.880990000000     0.924870000000     0.031125000000     0          
Si       Si     0.781085000000     0.875000000000     0.031085000000     0          
O        O      0.850000000000     0.916720000000     0.035710000000     0          
O        O      0.799745000000     0.900235000000     0.039005000000     0          
O        O      0.814400000000     0.932740000000     0.000000000000     0          
O        O      0.750000000000     0.882675000000     0.035790000000     0          
O        O      0.885785000000     0.932330000000     0.000000000000     0          
O        O      0.811675000000     0.950525000000     0.049475000000     0          
O        O      0.899960000000     0.899960000000     0.039340000000     0          
O        O      0.888305000000     0.950475000000     0.049525000000     0          
Si       Si     0.575045000000     0.819050000000     0.031060000000     0          
Si       Si     0.575130000000     0.880990000000     0.031125000000     0          
Si       Si     0.625000000000     0.781085000000     0.031085000000     0          
O        O      0.583280000000     0.850000000000     0.035710000000     0          
O        O      0.599765000000     0.799745000000     0.039005000000     0          
O        O      0.567260000000     0.814400000000     0.000000000000     0          
O        O      0.617325000000     0.750000000000     0.035790000000     0          
O        O      0.567670000000     0.885785000000     0.000000000000     0          
O        O      0.549475000000     0.811675000000     0.049475000000     0          
O        O      0.600040000000     0.899960000000     0.039340000000     0          
O        O      0.549525000000     0.888305000000     0.049525000000     0          
Si       Si     0.680950000000     0.924955000000     0.468940000000     0          
Si       Si     0.619010000000     0.924870000000     0.468875000000     0          
Si       Si     0.718915000000     0.875000000000     0.468915000000     0          
O        O      0.650000000000     0.916720000000     0.464290000000     0          
O        O      0.700255000000     0.900235000000     0.460995000000     0          
O        O      0.685600000000     0.932740000000     0.000000000000     0          
O        O      0.750000000000     0.882675000000     0.464210000000     0          
O        O      0.614215000000     0.932330000000     0.000000000000     0          
O        O      0.688325000000     0.950525000000     0.450525000000     0          
O        O      0.600040000000     0.899960000000     0.460660000000     0          
O        O      0.611695000000     0.950475000000     0.450475000000     0          
Si       Si     0.575045000000     0.680950000000     0.468940000000     0          
Si       Si     0.575130000000     0.619010000000     0.468875000000     0          
Si       Si     0.625000000000     0.718915000000     0.468915000000     0          
O        O      0.583280000000     0.650000000000     0.464290000000     0          
O        O      0.599765000000     0.700255000000     0.460995000000     0          
O        O      0.567260000000     0.685600000000     0.000000000000     0          
O        O      0.617325000000     0.750000000000     0.464210000000     0          
O        O      0.567670000000     0.614215000000     0.000000000000     0          
O        O      0.549475000000     0.688325000000     0.450525000000     0          
O        O      0.600040000000     0.600040000000     0.460660000000     0          
O        O      0.549525000000     0.611695000000     0.450475000000     0          
Si       Si     0.819050000000     0.575045000000     0.468940000000     0          
Si       Si     0.880990000000     0.575130000000     0.468875000000     0          
Si       Si     0.781085000000     0.625000000000     0.468915000000     0          
O        O      0.850000000000     0.583280000000     0.464290000000     0          
O        O      0.799745000000     0.599765000000     0.460995000000     0          
O        O      0.814400000000     0.567260000000     0.000000000000     0          
O        O      0.750000000000     0.617325000000     0.464210000000     0          
O        O      0.885785000000     0.567670000000     0.000000000000     0          
O        O      0.811675000000     0.549475000000     0.450525000000     0          
O        O      0.899960000000     0.600040000000     0.460660000000     0          
O        O      0.888305000000     0.549525000000     0.450475000000     0          
Si       Si     0.924955000000     0.819050000000     0.468940000000     0          
Si       Si     0.924870000000     0.880990000000     0.468875000000     0          
Si       Si     0.875000000000     0.781085000000     0.468915000000     0          
O        O      0.916720000000     0.850000000000     0.464290000000     0          
O        O      0.900235000000     0.799745000000     0.460995000000     0          
O        O      0.932740000000     0.814400000000     0.000000000000     0          
O        O      0.882675000000     0.750000000000     0.464210000000     0          
O        O      0.932330000000     0.885785000000     0.000000000000     0          
O        O      0.950525000000     0.811675000000     0.450525000000     0          
O        O      0.899960000000     0.899960000000     0.460660000000     0          
O        O      0.950475000000     0.888305000000     0.450475000000     0          
Si       Si     0.531060000000     0.680950000000     0.075045000000     0          
Si       Si     0.531125000000     0.619010000000     0.075130000000     0          
Si       Si     0.531085000000     0.718915000000     0.125000000000     0          
O        O      0.535710000000     0.650000000000     0.083280000000     0          
O        O      0.539005000000     0.700255000000     0.099765000000     0          
O        O      0.500000000000     0.685600000000     0.067260000000     0          
O        O      0.535790000000     0.750000000000     0.117325000000     0          
O        O      0.500000000000     0.614215000000     0.067670000000     0          
O        O      0.549475000000     0.688325000000     0.049475000000     0          
O        O      0.539340000000     0.600040000000     0.100040000000     0          
O        O      0.549525000000     0.611695000000     0.049525000000     0          
Si       Si     0.819050000000     0.531060000000     0.075045000000     0          
Si       Si     0.880990000000     0.531125000000     0.075130000000     0          
Si       Si     0.781085000000     0.531085000000     0.125000000000     0          
O        O      0.850000000000     0.535710000000     0.083280000000     0          
O        O      0.799745000000     0.539005000000     0.099765000000     0          
O        O      0.814400000000     0.500000000000     0.067260000000     0          
O        O      0.750000000000     0.535790000000     0.117325000000     0          
O        O      0.885785000000     0.500000000000     0.067670000000     0          
O        O      0.811675000000     0.549475000000     0.049475000000     0          
O        O      0.899960000000     0.539340000000     0.100040000000     0          
O        O      0.888305000000     0.549525000000     0.049525000000     0          
Si       Si     0.968940000000     0.819050000000     0.075045000000     0          
Si       Si     0.968875000000     0.880990000000     0.075130000000     0          
Si       Si     0.968915000000     0.781085000000     0.125000000000     0          
O        O      0.964290000000     0.850000000000     0.083280000000     0          
O        O      0.960995000000     0.799745000000     0.099765000000     0          
O        O      0.500000000000     0.814400000000     0.067260000000     0          
O        O      0.964210000000     0.750000000000     0.117325000000     0          
O        O      0.500000000000     0.885785000000     0.067670000000     0          
O        O      0.950525000000     0.811675000000     0.049475000000     0          
O        O      0.960660000000     0.899960000000     0.100040000000     0          
O        O      0.950475000000     0.888305000000     0.049525000000     0          
Si       Si     0.680950000000     0.968940000000     0.075045000000     0          
Si       Si     0.619010000000     0.968875000000     0.075130000000     0          
Si       Si     0.718915000000     0.968915000000     0.125000000000     0          
O        O      0.650000000000     0.964290000000     0.083280000000     0          
O        O      0.700255000000     0.960995000000     0.099765000000     0          
O        O      0.685600000000     0.500000000000     0.067260000000     0          
O        O      0.750000000000     0.964210000000     0.117325000000     0          
O        O      0.614215000000     0.500000000000     0.067670000000     0          
O        O      0.688325000000     0.950525000000     0.049475000000     0          
O        O      0.600040000000     0.960660000000     0.100040000000     0          
O        O      0.611695000000     0.950475000000     0.049525000000     0          
Si       Si     0.531060000000     0.819050000000     0.424955000000     0          
Si       Si     0.531125000000     0.880990000000     0.424870000000     0          
Si       Si     0.531085000000     0.781085000000     0.375000000000     0          
O        O      0.535710000000     0.850000000000     0.416720000000     0          
O        O      0.539005000000     0.799745000000     0.400235000000     0          
O        O      0.500000000000     0.814400000000     0.432740000000     0          
O        O      0.535790000000     0.750000000000     0.382675000000     0          
O        O      0.500000000000     0.885785000000     0.432330000000     0          
O        O      0.549475000000     0.811675000000     0.450525000000     0          
O        O      0.539340000000     0.899960000000     0.399960000000     0          
O        O      0.549525000000     0.888305000000     0.450475000000     0          
Si       Si     0.680950000000     0.531060000000     0.424955000000     0          
Si       Si     0.619010000000     0.531125000000     0.424870000000     0          
Si       Si     0.718915000000     0.531085000000     0.375000000000     0          
O        O      0.650000000000     0.535710000000     0.416720000000     0          
O        O      0.700255000000     0.539005000000     0.400235000000     0          
O        O      0.685600000000     0.500000000000     0.432740000000     0          
O        O      0.750000000000     0.535790000000     0.382675000000     0          
O        O      0.614215000000     0.500000000000     0.432330000000     0          
O        O      0.688325000000     0.549475000000     0.450525000000     0          
O        O      0.600040000000     0.539340000000     0.399960000000     0          
O        O      0.611695000000     0.549525000000     0.450475000000     0          
Si       Si     0.968940000000     0.680950000000     0.424955000000     0          
Si       Si     0.968875000000     0.619010000000     0.424870000000     0          
Si       Si     0.968915000000     0.718915000000     0.375000000000     0          
O        O      0.964290000000     0.650000000000     0.416720000000     0          
O        O      0.960995000000     0.700255000000     0.400235000000     0          
O        O      0.500000000000     0.685600000000     0.432740000000     0          
O        O      0.964210000000     0.750000000000     0.382675000000     0          
O        O      0.500000000000     0.614215000000     0.432330000000     0          
O        O      0.950525000000     0.688325000000     0.450525000000     0          
O        O      0.960660000000     0.600040000000     0.399960000000     0          
O        O      0.950475000000     0.611695000000     0.450475000000     0          
Si       Si     0.819050000000     0.968940000000     0.424955000000     0          
Si       Si     0.880990000000     0.968875000000     0.424870000000     0          
Si       Si     0.781085000000     0.968915000000     0.375000000000     0          
O        O      0.850000000000     0.964290000000     0.416720000000     0          
O        O      0.799745000000     0.960995000000     0.400235000000     0          
O        O      0.814400000000     0.500000000000     0.432740000000     0          
O        O      0.750000000000     0.964210000000     0.382675000000     0          
O        O      0.885785000000     0.500000000000     0.432330000000     0          
O        O      0.811675000000     0.950525000000     0.450525000000     0          
O        O      0.899960000000     0.960660000000     0.399960000000     0          
O        O      0.888305000000     0.950475000000     0.450475000000     0          
Si       Si     0.575045000000     0.531060000000     0.180950000000     0          
Si       Si     0.575130000000     0.531125000000     0.119010000000     0          
Si       Si     0.625000000000     0.531085000000     0.218915000000     0          
O        O      0.583280000000     0.535710000000     0.150000000000     0          
O        O      0.599765000000     0.539005000000     0.200255000000     0          
O        O      0.567260000000     0.500000000000     0.185600000000     0          
O        O      0.617325000000     0.535790000000     0.250000000000     0          
O        O      0.567670000000     0.500000000000     0.114215000000     0          
O        O      0.549475000000     0.549475000000     0.188325000000     0          
O        O      0.600040000000     0.539340000000     0.100040000000     0          
O        O      0.549525000000     0.549525000000     0.111695000000     0          
Si       Si     0.575045000000     0.968940000000     0.319050000000     0          
Si       Si     0.575130000000     0.968875000000     0.380990000000     0          
Si       Si     0.625000000000     0.968915000000     0.281085000000     0          
O        O      0.583280000000     0.964290000000     0.350000000000     0          
O        O      0.599765000000     0.960995000000     0.299745000000     0          
O        O      0.567260000000     0.500000000000     0.314400000000     0          
O        O      0.617325000000     0.964210000000     0.250000000000     0          
O        O      0.567670000000     0.500000000000     0.385785000000     0          
O        O      0.549475000000     0.950525000000     0.311675000000     0          
O        O      0.600040000000     0.960660000000     0.399960000000     0          
O        O      0.549525000000     0.950475000000     0.388305000000     0          
Si       Si     0.531060000000     0.575045000000     0.319050000000     0          
Si       Si     0.531125000000     0.575130000000     0.380990000000     0          
Si       Si     0.531085000000     0.625000000000     0.281085000000     0          
O        O      0.535710000000     0.583280000000     0.350000000000     0          
O        O      0.539005000000     0.599765000000     0.299745000000     0          
O        O      0.500000000000     0.567260000000     0.314400000000     0          
O        O      0.535790000000     0.617325000000     0.250000000000     0          
O        O      0.500000000000     0.567670000000     0.385785000000     0          
O        O      0.549475000000     0.549475000000     0.311675000000     0          
O        O      0.539340000000     0.600040000000     0.399960000000     0          
O        O      0.549525000000     0.549525000000     0.388305000000     0          
Si       Si     0.924955000000     0.531060000000     0.319050000000     0          
Si       Si     0.924870000000     0.531125000000     0.380990000000     0          
Si       Si     0.875000000000     0.531085000000     0.281085000000     0          
O        O      0.916720000000     0.535710000000     0.350000000000     0          
O        O      0.900235000000     0.539005000000     0.299745000000     0          
O        O      0.932740000000     0.500000000000     0.314400000000     0          
O        O      0.882675000000     0.535790000000     0.250000000000     0          
O        O      0.932330000000     0.500000000000     0.385785000000     0          
O        O      0.950525000000     0.549475000000     0.311675000000     0          
O        O      0.899960000000     0.539340000000     0.399960000000     0          
O        O      0.950475000000     0.549525000000     0.388305000000     0          
Si       Si     0.968940000000     0.924955000000     0.319050000000     0          
Si       Si     0.968875000000     0.924870000000     0.380990000000     0          
Si       Si     0.968915000000     0.875000000000     0.281085000000     0          
O        O      0.964290000000     0.916720000000     0.350000000000     0          
O        O      0.960995000000     0.900235000000     0.299745000000     0          
O        O      0.500000000000     0.932740000000     0.314400000000     0          
O        O      0.964210000000     0.882675000000     0.250000000000     0          
O        O      0.500000000000     0.932330000000     0.385785000000     0          
O        O      0.950525000000     0.950525000000     0.311675000000     0          
O        O      0.960660000000     0.899960000000     0.399960000000     0          
O        O      0.950475000000     0.950475000000     0.388305000000     0          
Si       Si     0.924955000000     0.968940000000     0.180950000000     0          
Si       Si     0.924870000000     0.968875000000     0.119010000000     0          
Si       Si     0.875000000000     0.968915000000     0.218915000000     0          
O        O      0.916720000000     0.964290000000     0.150000000000     0          
O        O      0.900235000000     0.960995000000     0.200255000000     0          
O        O      0.932740000000     0.500000000000     0.185600000000     0          
O        O      0.882675000000     0.964210000000     0.250000000000     0          
O        O      0.932330000000     0.500000000000     0.114215000000     0          
O        O      0.950525000000     0.950525000000     0.188325000000     0          
O        O      0.899960000000     0.960660000000     0.100040000000     0          
O        O      0.950475000000     0.950475000000     0.111695000000     0          
Si       Si     0.531060000000     0.924955000000     0.180950000000     0          
Si       Si     0.531125000000     0.924870000000     0.119010000000     0          
Si       Si     0.531085000000     0.875000000000     0.218915000000     0          
O        O      0.535710000000     0.916720000000     0.150000000000     0          
O        O      0.539005000000     0.900235000000     0.200255000000     0          
O        O      0.500000000000     0.932740000000     0.185600000000     0          
O        O      0.535790000000     0.882675000000     0.250000000000     0          
O        O      0.500000000000     0.932330000000     0.114215000000     0          
O        O      0.549475000000     0.950525000000     0.188325000000     0          
O        O      0.539340000000     0.899960000000     0.100040000000     0          
O        O      0.549525000000     0.950475000000     0.111695000000     0          
Si       Si     0.968940000000     0.575045000000     0.180950000000     0          
Si       Si     0.968875000000     0.575130000000     0.119010000000     0          
Si       Si     0.968915000000     0.625000000000     0.218915000000     0          
O        O      0.964290000000     0.583280000000     0.150000000000     0          
O        O      0.960995000000     0.599765000000     0.200255000000     0          
O        O      0.500000000000     0.567260000000     0.185600000000     0          
O        O      0.964210000000     0.617325000000     0.250000000000     0          
O        O      0.500000000000     0.567670000000     0.114215000000     0          
O        O      0.950525000000     0.549475000000     0.188325000000     0          
O        O      0.960660000000     0.600040000000     0.100040000000     0          
O        O      0.950475000000     0.549525000000     0.111695000000     0          
Si       Si     0.819050000000     0.924955000000     0.468940000000     0          
Si       Si     0.880990000000     0.924870000000     0.468875000000     0          
Si       Si     0.781085000000     0.875000000000     0.468915000000     0          
O        O      0.850000000000     0.916720000000     0.464290000000     0          
O        O      0.799745000000     0.900235000000     0.460995000000     0          
Si       Si     0.575045000000     0.819050000000     0.468940000000     0          
Si       Si     0.575130000000     0.880990000000     0.468875000000     0          
Si       Si     0.625000000000     0.781085000000     0.468915000000     0          
O        O      0.583280000000     0.850000000000     0.464290000000     0          
O        O      0.599765000000     0.799745000000     0.460995000000     0          
Si       Si     0.680950000000     0.575045000000     0.468940000000     0          
Si       Si     0.619010000000     0.575130000000     0.468875000000     0          
Si       Si     0.718915000000     0.625000000000     0.468915000000     0          
O        O      0.650000000000     0.583280000000     0.464290000000     0          
O        O      0.700255000000     0.599765000000     0.460995000000     0          
Si       Si     0.924955000000     0.680950000000     0.468940000000     0          
Si       Si     0.924870000000     0.619010000000     0.468875000000     0          
Si       Si     0.875000000000     0.718915000000     0.468915000000     0          
O        O      0.916720000000     0.650000000000     0.464290000000     0          
O        O      0.900235000000     0.700255000000     0.460995000000     0          
Si       Si     0.819050000000     0.575045000000     0.031060000000     0          
Si       Si     0.880990000000     0.575130000000     0.031125000000     0          
Si       Si     0.781085000000     0.625000000000     0.031085000000     0          
O        O      0.850000000000     0.583280000000     0.035710000000     0          
O        O      0.799745000000     0.599765000000     0.039005000000     0          
Si       Si     0.924955000000     0.819050000000     0.031060000000     0          
Si       Si     0.924870000000     0.880990000000     0.031125000000     0          
Si       Si     0.875000000000     0.781085000000     0.031085000000     0          
O        O      0.916720000000     0.850000000000     0.035710000000     0          
O        O      0.900235000000     0.799745000000     0.039005000000     0          
Si       Si     0.680950000000     0.924955000000     0.031060000000     0          
Si       Si     0.619010000000     0.924870000000     0.031125000000     0          
Si       Si     0.718915000000     0.875000000000     0.031085000000     0          
O        O      0.650000000000     0.916720000000     0.035710000000     0          
O        O      0.700255000000     0.900235000000     0.039005000000     0          
Si       Si     0.575045000000     0.680950000000     0.031060000000     0          
Si       Si     0.575130000000     0.619010000000     0.031125000000     0          
Si       Si     0.625000000000     0.718915000000     0.031085000000     0          
O        O      0.583280000000     0.650000000000     0.035710000000     0          
O        O      0.599765000000     0.700255000000     0.039005000000     0          
Si       Si     0.968940000000     0.819050000000     0.424955000000     0          
Si       Si     0.968875000000     0.880990000000     0.424870000000     0          
Si       Si     0.968915000000     0.781085000000     0.375000000000     0          
O        O      0.964290000000     0.850000000000     0.416720000000     0          
O        O      0.960995000000     0.799745000000     0.400235000000     0          
Si       Si     0.680950000000     0.968940000000     0.424955000000     0          
Si       Si     0.619010000000     0.968875000000     0.424870000000     0          
Si       Si     0.718915000000     0.968915000000     0.375000000000     0          
O        O      0.650000000000     0.964290000000     0.416720000000     0          
O        O      0.700255000000     0.960995000000     0.400235000000     0          
Si       Si     0.531060000000     0.680950000000     0.424955000000     0          
Si       Si     0.531125000000     0.619010000000     0.424870000000     0          
Si       Si     0.531085000000     0.718915000000     0.375000000000     0          
O        O      0.535710000000     0.650000000000     0.416720000000     0          
O        O      0.539005000000     0.700255000000     0.400235000000     0          
Si       Si     0.819050000000     0.531060000000     0.424955000000     0          
Si       Si     0.880990000000     0.531125000000     0.424870000000     0          
Si       Si     0.781085000000     0.531085000000     0.375000000000     0          
O        O      0.850000000000     0.535710000000     0.416720000000     0          
O        O      0.799745000000     0.539005000000     0.400235000000     0          
Si       Si     0.968940000000     0.680950000000     0.075045000000     0          
Si       Si     0.968875000000     0.619010000000     0.075130000000     0          
Si       Si     0.968915000000     0.718915000000     0.125000000000     0          
O        O      0.964290000000     0.650000000000     0.083280000000     0          
O        O      0.960995000000     0.700255000000     0.099765000000     0          
Si       Si     0.819050000000     0.968940000000     0.075045000000     0          
Si       Si     0.880990000000     0.968875000000     0.075130000000     0          
Si       Si     0.781085000000     0.968915000000     0.125000000000     0          
O        O      0.850000000000     0.964290000000     0.083280000000     0          
O        O      0.799745000000     0.960995000000     0.099765000000     0          
Si       Si     0.531060000000     0.819050000000     0.075045000000     0          
Si       Si     0.531125000000     0.880990000000     0.075130000000     0          
Si       Si     0.531085000000     0.781085000000     0.125000000000     0          
O        O      0.535710000000     0.850000000000     0.083280000000     0          
O        O      0.539005000000     0.799745000000     0.099765000000     0          
Si       Si     0.680950000000     0.531060000000     0.075045000000     0          
Si       Si     0.619010000000     0.531125000000     0.075130000000     0          
Si       Si     0.718915000000     0.531085000000     0.125000000000     0          
O        O      0.650000000000     0.535710000000     0.083280000000     0          
O        O      0.700255000000     0.539005000000     0.099765000000     0          
Si       Si     0.924955000000     0.968940000000     0.319050000000     0          
Si       Si     0.924870000000     0.968875000000     0.380990000000     0          
Si       Si     0.875000000000     0.968915000000     0.281085000000     0          
O        O      0.916720000000     0.964290000000     0.350000000000     0          
O        O      0.900235000000     0.960995000000     0.299745000000     0          
Si       Si     0.924955000000     0.531060000000     0.180950000000     0          
Si       Si     0.924870000000     0.531125000000     0.119010000000     0          
Si       Si     0.875000000000     0.531085000000     0.218915000000     0          
O        O      0.916720000000     0.535710000000     0.150000000000     0          
O        O      0.900235000000     0.539005000000     0.200255000000     0          
Si       Si     0.968940000000     0.924955000000     0.180950000000     0          
Si       Si     0.968875000000     0.924870000000     0.119010000000     0          
Si       Si     0.968915000000     0.875000000000     0.218915000000     0          
O        O      0.964290000000     0.916720000000     0.150000000000     0          
O        O      0.960995000000     0.900235000000     0.200255000000     0          
Si       Si     0.575045000000     0.968940000000     0.180950000000     0          
Si       Si     0.575130000000     0.968875000000     0.119010000000     0          
Si       Si     0.625000000000     0.968915000000     0.218915000000     0          
O        O      0.583280000000     0.964290000000     0.150000000000     0          
O        O      0.599765000000     0.960995000000     0.200255000000     0          
Si       Si     0.531060000000     0.575045000000     0.180950000000     0          
Si       Si     0.531125000000     0.575130000000     0.119010000000     0          
Si       Si     0.531085000000     0.625000000000     0.218915000000     0          
O        O      0.535710000000     0.583280000000     0.150000000000     0          
O        O      0.539005000000     0.599765000000     0.200255000000     0          
Si       Si     0.575045000000     0.531060000000     0.319050000000     0          
Si       Si     0.575130000000     0.531125000000     0.380990000000     0          
Si       Si     0.625000000000     0.531085000000     0.281085000000     0          
O        O      0.583280000000     0.535710000000     0.350000000000     0          
O        O      0.599765000000     0.539005000000     0.299745000000     0          
Si       Si     0.968940000000     0.575045000000     0.319050000000     0          
Si       Si     0.968875000000     0.575130000000     0.380990000000     0          
Si       Si     0.968915000000     0.625000000000     0.281085000000     0          
O        O      0.964290000000     0.583280000000     0.350000000000     0          
O        O      0.960995000000     0.599765000000     0.299745000000     0          
Si       Si     0.531060000000     0.924955000000     0.319050000000     0          
Si       Si     0.531125000000     0.924870000000     0.380990000000     0          
Si       Si     0.531085000000     0.875000000000     0.281085000000     0          
O        O      0.535710000000     0.916720000000     0.350000000000     0          
O        O      0.539005000000     0.900235000000     0.299745000000     0          
Si       Si     0.930950000000     0.825045000000     0.281060000000     0          
Si       Si     0.869010000000     0.825130000000     0.281125000000     0          
O        O      0.900000000000     0.833280000000     0.285710000000     0          
O        O      0.950255000000     0.849765000000     0.289005000000     0          
O        O      0.935600000000     0.817260000000     0.250000000000     0          
O        O      0.500000000000     0.867325000000     0.285790000000     0          
O        O      0.864215000000     0.817670000000     0.250000000000     0          
O        O      0.938325000000     0.799475000000     0.299475000000     0          
O        O      0.850040000000     0.850040000000     0.289340000000     0          
O        O      0.861695000000     0.799525000000     0.299525000000     0          
Si       Si     0.674955000000     0.930950000000     0.281060000000     0          
Si       Si     0.674870000000     0.869010000000     0.281125000000     0          
O        O      0.666720000000     0.900000000000     0.285710000000     0          
O        O      0.650235000000     0.950255000000     0.289005000000     0          
O        O      0.682740000000     0.935600000000     0.250000000000     0          
O        O      0.632675000000     0.500000000000     0.285790000000     0          
O        O      0.682330000000     0.864215000000     0.250000000000     0          
O        O      0.700525000000     0.938325000000     0.299475000000     0          
O        O      0.649960000000     0.850040000000     0.289340000000     0          
O        O      0.700475000000     0.861695000000     0.299525000000     0          
Si       Si     0.569050000000     0.674955000000     0.281060000000     0          
Si       Si     0.630990000000     0.674870000000     0.281125000000     0          
O        O      0.600000000000     0.666720000000     0.285710000000     0          
O        O      0.549745000000     0.650235000000     0.289005000000     0          
O        O      0.564400000000     0.682740000000     0.250000000000     0          
O        O      0.500000000000     0.632675000000     0.285790000000     0          
O        O      0.635785000000     0.682330000000     0.250000000000     0          
O        O      0.561675000000     0.700525000000     0.299475000000     0          
O        O      0.649960000000     0.649960000000     0.289340000000     0          
O        O      0.638305000000     0.700475000000     0.299525000000     0          
Si       Si     0.825045000000     0.569050000000     0.281060000000     0          
Si       Si     0.825130000000     0.630990000000     0.281125000000     0          
O        O      0.833280000000     0.600000000000     0.285710000000     0          
O        O      0.849765000000     0.549745000000     0.289005000000     0          
O        O      0.817260000000     0.564400000000     0.250000000000     0          
O        O      0.867325000000     0.500000000000     0.285790000000     0          
O        O      0.817670000000     0.635785000000     0.250000000000     0          
O        O      0.799475000000     0.561675000000     0.299475000000     0          
O        O      0.850040000000     0.649960000000     0.289340000000     0          
O        O      0.799525000000     0.638305000000     0.299525000000     0          
Si       Si     0.930950000000     0.674955000000     0.218940000000     0          
Si       Si     0.869010000000     0.674870000000     0.218875000000     0          
O        O      0.900000000000     0.666720000000     0.214290000000     0          
O        O      0.950255000000     0.650235000000     0.210995000000     0          
O        O      0.935600000000     0.682740000000     0.250000000000     0          
O        O      0.500000000000     0.632675000000     0.214210000000     0          
O        O      0.864215000000     0.682330000000     0.250000000000     0          
O        O      0.938325000000     0.700525000000     0.200525000000     0          
O        O      0.850040000000     0.649960000000     0.210660000000     0          
O        O      0.861695000000     0.700475000000     0.200475000000     0          
Si       Si     0.825045000000     0.930950000000     0.218940000000     0          
Si       Si     0.825130000000     0.869010000000     0.218875000000     0          
O        O      0.833280000000     0.900000000000     0.214290000000     0          
O        O      0.849765000000     0.950255000000     0.210995000000     0          
O        O      0.817260000000     0.935600000000     0.250000000000     0          
O        O      0.867325000000     0.500000000000     0.214210000000     0          
O        O      0.817670000000     0.864215000000     0.250000000000     0          
O        O      0.799475000000     0.938325000000     0.200525000000     0          
O        O      0.850040000000     0.850040000000     0.210660000000     0          
O        O      0.799525000000     0.861695000000     0.200475000000     0          
Si       Si     0.569050000000     0.825045000000     0.218940000000     0          
Si       Si     0.630990000000     0.825130000000     0.218875000000     0          
O        O      0.600000000000     0.833280000000     0.214290000000     0          
O        O      0.549745000000     0.849765000000     0.210995000000     0          
O        O      0.564400000000     0.817260000000     0.250000000000     0          
O        O      0.500000000000     0.867325000000     0.214210000000     0          
O        O      0.635785000000     0.817670000000     0.250000000000     0          
O        O      0.561675000000     0.799475000000     0.200525000000     0          
O        O      0.649960000000     0.850040000000     0.210660000000     0          
O        O      0.638305000000     0.799525000000     0.200475000000     0          
Si       Si     0.674955000000     0.569050000000     0.218940000000     0          
Si       Si     0.674870000000     0.630990000000     0.218875000000     0          
O        O      0.666720000000     0.600000000000     0.214290000000     0          
O        O      0.650235000000     0.549745000000     0.210995000000     0          
O        O      0.682740000000     0.564400000000     0.250000000000     0          
O        O      0.632675000000     0.500000000000     0.214210000000     0          
O        O      0.682330000000     0.635785000000     0.250000000000     0          
O        O      0.700525000000     0.561675000000     0.200525000000     0          
O        O      0.649960000000     0.649960000000     0.210660000000     0          
O        O      0.700475000000     0.638305000000     0.200475000000     0          
Si       Si     0.781060000000     0.930950000000     0.325045000000     0          
Si       Si     0.781125000000     0.869010000000     0.325130000000     0          
O        O      0.785710000000     0.900000000000     0.333280000000     0          
O        O      0.789005000000     0.950255000000     0.349765000000     0          
O        O      0.750000000000     0.935600000000     0.317260000000     0          
O        O      0.785790000000     0.500000000000     0.367325000000     0          
O        O      0.750000000000     0.864215000000     0.317670000000     0          
O        O      0.799475000000     0.938325000000     0.299475000000     0          
O        O      0.789340000000     0.850040000000     0.350040000000     0          
O        O      0.799525000000     0.861695000000     0.299525000000     0          
Si       Si     0.569050000000     0.781060000000     0.325045000000     0          
Si       Si     0.630990000000     0.781125000000     0.325130000000     0          
O        O      0.600000000000     0.785710000000     0.333280000000     0          
O        O      0.549745000000     0.789005000000     0.349765000000     0          
O        O      0.564400000000     0.750000000000     0.317260000000     0          
O        O      0.500000000000     0.785790000000     0.367325000000     0          
O        O      0.635785000000     0.750000000000     0.317670000000     0          
O        O      0.561675000000     0.799475000000     0.299475000000     0          
O        O      0.649960000000     0.789340000000     0.350040000000     0          
O        O      0.638305000000     0.799525000000     0.299525000000     0          
Si       Si     0.718940000000     0.569050000000     0.325045000000     0          
Si       Si     0.718875000000     0.630990000000     0.325130000000     0          
O        O      0.714290000000     0.600000000000     0.333280000000     0          
O        O      0.710995000000     0.549745000000     0.349765000000     0          
O        O      0.750000000000     0.564400000000     0.317260000000     0          
O        O      0.714210000000     0.500000000000     0.367325000000     0          
O        O      0.750000000000     0.635785000000     0.317670000000     0          
O        O      0.700525000000     0.561675000000     0.299475000000     0          
O        O      0.710660000000     0.649960000000     0.350040000000     0          
O        O      0.700475000000     0.638305000000     0.299525000000     0          
Si       Si     0.930950000000     0.718940000000     0.325045000000     0          
Si       Si     0.869010000000     0.718875000000     0.325130000000     0          
O        O      0.900000000000     0.714290000000     0.333280000000     0          
O        O      0.950255000000     0.710995000000     0.349765000000     0          
O        O      0.935600000000     0.750000000000     0.317260000000     0          
O        O      0.500000000000     0.714210000000     0.367325000000     0          
O        O      0.864215000000     0.750000000000     0.317670000000     0          
O        O      0.938325000000     0.700525000000     0.299475000000     0          
O        O      0.850040000000     0.710660000000     0.350040000000     0          
O        O      0.861695000000     0.700475000000     0.299525000000     0          
Si       Si     0.781060000000     0.569050000000     0.174955000000     0          
Si       Si     0.781125000000     0.630990000000     0.174870000000     0          
O        O      0.785710000000     0.600000000000     0.166720000000     0          
O        O      0.789005000000     0.549745000000     0.150235000000     0          
O        O      0.750000000000     0.564400000000     0.182740000000     0          
O        O      0.785790000000     0.500000000000     0.132675000000     0          
O        O      0.750000000000     0.635785000000     0.182330000000     0          
O        O      0.799475000000     0.561675000000     0.200525000000     0          
O        O      0.789340000000     0.649960000000     0.149960000000     0          
O        O      0.799525000000     0.638305000000     0.200475000000     0          
Si       Si     0.930950000000     0.781060000000     0.174955000000     0          
Si       Si     0.869010000000     0.781125000000     0.174870000000     0          
O        O      0.900000000000     0.785710000000     0.166720000000     0          
O        O      0.950255000000     0.789005000000     0.150235000000     0          
O        O      0.935600000000     0.750000000000     0.182740000000     0          
O        O      0.500000000000     0.785790000000     0.132675000000     0          
O        O      0.864215000000     0.750000000000     0.182330000000     0          
O        O      0.938325000000     0.799475000000     0.200525000000     0          
O        O      0.850040000000     0.789340000000     0.149960000000     0          
O        O      0.861695000000     0.799525000000     0.200475000000     0          
Si       Si     0.718940000000     0.930950000000     0.174955000000     0          
Si       Si     0.718875000000     0.869010000000     0.174870000000     0          
O        O      0.714290000000     0.900000000000     0.166720000000     0          
O        O      0.710995000000     0.950255000000     0.150235000000     0          
O        O      0.750000000000     0.935600000000     0.182740000000     0          
O        O      0.714210000000     0.500000000000     0.132675000000     0          
O        O      0.750000000000     0.864215000000     0.182330000000     0          
O        O      0.700525000000     0.938325000000     0.200525000000     0          
O        O      0.710660000000     0.850040000000     0.149960000000     0          
O        O      0.700475000000     0.861695000000     0.200475000000     0          
Si       Si     0.569050000000     0.718940000000     0.174955000000     0          
Si       Si     0.630990000000     0.718875000000     0.174870000000     0          
O        O      0.600000000000     0.714290000000     0.166720000000     0          
O        O      0.549745000000     0.710995000000     0.150235000000     0          
O        O      0.564400000000     0.750000000000     0.182740000000     0          
O        O      0.500000000000     0.714210000000     0.132675000000     0          
O        O      0.635785000000     0.750000000000     0.182330000000     0          
O        O      0.561675000000     0.700525000000     0.200525000000     0          
O        O      0.649960000000     0.710660000000     0.149960000000     0          
O        O      0.638305000000     0.700475000000     0.200475000000     0          
Si       Si     0.825045000000     0.781060000000     0.430950000000     0          
Si       Si     0.825130000000     0.781125000000     0.369010000000     0          
O        O      0.833280000000     0.785710000000     0.400000000000     0          
O        O      0.849765000000     0.789005000000     0.450255000000     0          
O        O      0.817260000000     0.750000000000     0.435600000000     0          
O        O      0.867325000000     0.785790000000     0.000000000000     0          
O        O      0.817670000000     0.750000000000     0.364215000000     0          
O        O      0.799475000000     0.799475000000     0.438325000000     0          
O        O      0.850040000000     0.789340000000     0.350040000000     0          
O        O      0.799525000000     0.799525000000     0.361695000000     0          
Si       Si     0.825045000000     0.718940000000     0.069050000000     0          
Si       Si     0.825130000000     0.718875000000     0.130990000000     0          
O        O      0.833280000000     0.714290000000     0.100000000000     0          
O        O      0.849765000000     0.710995000000     0.049745000000     0          
O        O      0.817260000000     0.750000000000     0.064400000000     0          
O        O      0.867325000000     0.714210000000     0.000000000000     0          
O        O      0.817670000000     0.750000000000     0.135785000000     0          
O        O      0.799475000000     0.700525000000     0.061675000000     0          
O        O      0.850040000000     0.710660000000     0.149960000000     0          
O        O      0.799525000000     0.700475000000     0.138305000000     0          
Si       Si     0.781060000000     0.825045000000     0.069050000000     0          
Si       Si     0.781125000000     0.825130000000     0.130990000000     0          
O        O      0.785710000000     0.833280000000     0.100000000000     0          
O        O      0.789005000000     0.849765000000     0.049745000000     0          
O        O      0.750000000000     0.817260000000     0.064400000000     0          
O        O      0.785790000000     0.867325000000     0.000000000000     0          
O        O      0.750000000000     0.817670000000     0.135785000000     0          
O        O      0.799475000000     0.799475000000     0.061675000000     0          
O        O      0.789340000000     0.850040000000     0.149960000000     0          
O        O      0.799525000000     0.799525000000     0.138305000000     0          
Si       Si     0.674955000000     0.781060000000     0.069050000000     0          
Si       Si     0.674870000000     0.781125000000     0.130990000000     0          
O        O      0.666720000000     0.785710000000     0.100000000000     0          
O        O      0.650235000000     0.789005000000     0.049745000000     0          
O        O      0.682740000000     0.750000000000     0.064400000000     0          
O        O      0.632675000000     0.785790000000     0.000000000000     0          
O        O      0.682330000000     0.750000000000     0.135785000000     0          
O        O      0.700525000000     0.799475000000     0.061675000000     0          
O        O      0.649960000000     0.789340000000     0.149960000000     0          
O        O      0.700475000000     0.799525000000     0.138305000000     0          
Si       Si     0.718940000000     0.674955000000     0.069050000000     0          
Si       Si     0.718875000000     0.674870000000     0.130990000000     0          
O        O      0.714290000000     0.666720000000     0.100000000000     0          
O        O      0.710995000000     0.650235000000     0.049745000000     0          
O        O      0.750000000000     0.682740000000     0.064400000000     0          
O        O      0.714210000000     0.632675000000     0.000000000000     0          
O        O      0.750000000000     0.682330000000     0.135785000000     0          
O        O      0.700525000000     0.700525000000     0.061675000000     0          
O        O      0.710660000000     0.649960000000     0.149960000000     0          
O        O      0.700475000000     0.700475000000     0.138305000000     0          
Si       Si     0.674955000000     0.718940000000     0.430950000000     0          
Si       Si     0.674870000000     0.718875000000     0.369010000000     0          
O        O      0.666720000000     0.714290000000     0.400000000000     0          
O        O      0.650235000000     0.710995000000     0.450255000000     0          
O        O      0.682740000000     0.750000000000     0.435600000000     0          
O        O      0.632675000000     0.714210000000     0.000000000000     0          
O        O      0.682330000000     0.750000000000     0.364215000000     0          
O        O      0.700525000000     0.700525000000     0.438325000000     0          
O        O      0.649960000000     0.710660000000     0.350040000000     0          
O        O      0.700475000000     0.700475000000     0.361695000000     0          
Si       Si     0.781060000000     0.674955000000     0.430950000000     0          
Si       Si     0.781125000000     0.674870000000     0.369010000000     0          
O        O      0.785710000000     0.666720000000     0.400000000000     0          
O        O      0.789005000000     0.650235000000     0.450255000000     0          
O        O      0.750000000000     0.682740000000     0.435600000000     0          
O        O      0.785790000000     0.632675000000     0.000000000000     0          
O        O      0.750000000000     0.682330000000     0.364215000000     0          
O        O      0.799475000000     0.700525000000     0.438325000000     0          
O        O      0.789340000000     0.649960000000     0.350040000000     0          
O        O      0.799525000000     0.700475000000     0.361695000000     0          
Si       Si     0.718940000000     0.825045000000     0.430950000000     0          
Si       Si     0.718875000000     0.825130000000     0.369010000000     0          
O        O      0.714290000000     0.833280000000     0.400000000000     0          
O        O      0.710995000000     0.849765000000     0.450255000000     0          
O        O      0.750000000000     0.817260000000     0.435600000000     0          
O        O      0.714210000000     0.867325000000     0.000000000000     0          
O        O      0.750000000000     0.817670000000     0.364215000000     0          
O        O      0.700525000000     0.799475000000     0.438325000000     0          
O        O      0.710660000000     0.850040000000     0.350040000000     0          
O        O      0.700475000000     0.799525000000     0.361695000000     0          
Si       Si     0.569050000000     0.674955000000     0.218940000000     0          
Si       Si     0.630990000000     0.674870000000     0.218875000000     0          
O        O      0.600000000000     0.666720000000     0.214290000000     0          
O        O      0.549745000000     0.650235000000     0.210995000000     0          
Si       Si     0.825045000000     0.569050000000     0.218940000000     0          
Si       Si     0.825130000000     0.630990000000     0.218875000000     0          
O        O      0.833280000000     0.600000000000     0.214290000000     0          
O        O      0.849765000000     0.549745000000     0.210995000000     0          
Si       Si     0.930950000000     0.825045000000     0.218940000000     0          
Si       Si     0.869010000000     0.825130000000     0.218875000000     0          
O        O      0.900000000000     0.833280000000     0.214290000000     0          
O        O      0.950255000000     0.849765000000     0.210995000000     0          
Si       Si     0.674955000000     0.930950000000     0.218940000000     0          
Si       Si     0.674870000000     0.869010000000     0.218875000000     0          
O        O      0.666720000000     0.900000000000     0.214290000000     0          
O        O      0.650235000000     0.950255000000     0.210995000000     0          
Si       Si     0.569050000000     0.825045000000     0.281060000000     0          
Si       Si     0.630990000000     0.825130000000     0.281125000000     0          
O        O      0.600000000000     0.833280000000     0.285710000000     0          
O        O      0.549745000000     0.849765000000     0.289005000000     0          
Si       Si     0.674955000000     0.569050000000     0.281060000000     0          
Si       Si     0.674870000000     0.630990000000     0.281125000000     0          
O        O      0.666720000000     0.600000000000     0.285710000000     0          
O        O      0.650235000000     0.549745000000     0.289005000000     0          
Si       Si     0.930950000000     0.674955000000     0.281060000000     0          
Si       Si     0.869010000000     0.674870000000     0.281125000000     0          
O        O      0.900000000000     0.666720000000     0.285710000000     0          
O        O      0.950255000000     0.650235000000     0.289005000000     0          
Si       Si     0.825045000000     0.930950000000     0.281060000000     0          
Si       Si     0.825130000000     0.869010000000     0.281125000000     0          
O        O      0.833280000000     0.900000000000     0.285710000000     0          
O        O      0.849765000000     0.950255000000     0.289005000000     0          
Si       Si     0.718940000000     0.569050000000     0.174955000000     0          
Si       Si     0.718875000000     0.630990000000     0.174870000000     0          
O        O      0.714290000000     0.600000000000     0.166720000000     0          
O        O      0.710995000000     0.549745000000     0.150235000000     0          
Si       Si     0.930950000000     0.718940000000     0.174955000000     0          
Si       Si     0.869010000000     0.718875000000     0.174870000000     0          
O        O      0.900000000000     0.714290000000     0.166720000000     0          
O        O      0.950255000000     0.710995000000     0.150235000000     0          
Si       Si     0.781060000000     0.930950000000     0.174955000000     0          
Si       Si     0.781125000000     0.869010000000     0.174870000000     0          
O        O      0.785710000000     0.900000000000     0.166720000000     0          
O        O      0.789005000000     0.950255000000     0.150235000000     0          
Si       Si     0.569050000000     0.781060000000     0.174955000000     0          
Si       Si     0.630990000000     0.781125000000     0.174870000000     0          
O        O      0.600000000000     0.785710000000     0.166720000000     0          
O        O      0.549745000000     0.789005000000     0.150235000000     0          
Si       Si     0.718940000000     0.930950000000     0.325045000000     0          
Si       Si     0.718875000000     0.869010000000     0.325130000000     0          
O        O      0.714290000000     0.900000000000     0.333280000000     0          
O        O      0.710995000000     0.950255000000     0.349765000000     0          
Si       Si     0.569050000000     0.718940000000     0.325045000000     0          
Si       Si     0.630990000000     0.718875000000     0.325130000000     0          
O        O      0.600000000000     0.714290000000     0.333280000000     0          
O        O      0.549745000000     0.710995000000     0.349765000000     0          
Si       Si     0.781060000000     0.569050000000     0.325045000000     0          
Si       Si     0.781125000000     0.630990000000     0.325130000000     0          
O        O      0.785710000000     0.600000000000     0.333280000000     0          
O        O      0.789005000000     0.549745000000     0.349765000000     0          
Si       Si     0.930950000000     0.781060000000     0.325045000000     0          
Si       Si     0.869010000000     0.781125000000     0.325130000000     0          
O        O      0.900000000000     0.785710000000     0.333280000000     0          
O        O      0.950255000000     0.789005000000     0.349765000000     0          
Si       Si     0.674955000000     0.718940000000     0.069050000000     0          
Si       Si     0.674870000000     0.718875000000     0.130990000000     0          
O        O      0.666720000000     0.714290000000     0.100000000000     0          
O        O      0.650235000000     0.710995000000     0.049745000000     0          
Si       Si     0.674955000000     0.781060000000     0.430950000000     0          
Si       Si     0.674870000000     0.781125000000     0.369010000000     0          
O        O      0.666720000000     0.785710000000     0.400000000000     0          
O        O      0.650235000000     0.789005000000     0.450255000000     0          
Si       Si     0.718940000000     0.674955000000     0.430950000000     0          
Si       Si     0.718875000000     0.674870000000     0.369010000000     0          
O        O      0.714290000000     0.666720000000     0.400000000000     0          
O        O      0.710995000000     0.650235000000     0.450255000000     0          
Si       Si     0.825045000000     0.718940000000     0.430950000000     0          
Si       Si     0.825130000000     0.718875000000     0.369010000000     0          
O        O      0.833280000000     0.714290000000     0.400000000000     0          
O        O      0.849765000000     0.710995000000     0.450255000000     0          
Si       Si     0.781060000000     0.825045000000     0.430950000000     0          
Si       Si     0.781125000000     0.825130000000     0.369010000000     0          
O        O      0.785710000000     0.833280000000     0.400000000000     0          
O        O      0.789005000000     0.849765000000     0.450255000000     0          
Si       Si     0.825045000000     0.781060000000     0.069050000000     0          
Si       Si     0.825130000000     0.781125000000     0.130990000000     0          
O        O      0.833280000000     0.785710000000     0.100000000000     0          
O        O      0.849765000000     0.789005000000     0.049745000000     0          
Si       Si     0.718940000000     0.825045000000     0.069050000000     0          
Si       Si     0.718875000000     0.825130000000     0.130990000000     0          
O        O      0.714290000000     0.833280000000     0.100000000000     0          
O        O      0.710995000000     0.849765000000     0.049745000000     0          
Si       Si     0.781060000000     0.674955000000     0.069050000000     0          
Si       Si     0.781125000000     0.674870000000     0.130990000000     0          
O        O      0.785710000000     0.666720000000     0.100000000000     0          
O        O      0.789005000000     0.650235000000     0.049745000000     0          
Si       Si     0.680950000000     0.575045000000     0.531060000000     0          
Si       Si     0.619010000000     0.575130000000     0.531125000000     0          
Si       Si     0.718915000000     0.625000000000     0.531085000000     0          
O        O      0.650000000000     0.583280000000     0.535710000000     0          
O        O      0.700255000000     0.599765000000     0.539005000000     0          
O        O      0.685600000000     0.567260000000     0.500000000000     0          
O        O      0.750000000000     0.617325000000     0.535790000000     0          
O        O      0.614215000000     0.567670000000     0.500000000000     0          
O        O      0.688325000000     0.549475000000     0.549475000000     0          
O        O      0.600040000000     0.600040000000     0.539340000000     0          
O        O      0.611695000000     0.549525000000     0.549525000000     0          
Si       Si     0.924955000000     0.680950000000     0.531060000000     0          
Si       Si     0.924870000000     0.619010000000     0.531125000000     0          
Si       Si     0.875000000000     0.718915000000     0.531085000000     0          
O        O      0.916720000000     0.650000000000     0.535710000000     0          
O        O      0.900235000000     0.700255000000     0.539005000000     0          
O        O      0.932740000000     0.685600000000     0.500000000000     0          
O        O      0.882675000000     0.750000000000     0.535790000000     0          
O        O      0.932330000000     0.614215000000     0.500000000000     0          
O        O      0.950525000000     0.688325000000     0.549475000000     0          
O        O      0.899960000000     0.600040000000     0.539340000000     0          
O        O      0.950475000000     0.611695000000     0.549525000000     0          
Si       Si     0.819050000000     0.924955000000     0.531060000000     0          
Si       Si     0.880990000000     0.924870000000     0.531125000000     0          
Si       Si     0.781085000000     0.875000000000     0.531085000000     0          
O        O      0.850000000000     0.916720000000     0.535710000000     0          
O        O      0.799745000000     0.900235000000     0.539005000000     0          
O        O      0.814400000000     0.932740000000     0.500000000000     0          
O        O      0.750000000000     0.882675000000     0.535790000000     0          
O        O      0.885785000000     0.932330000000     0.500000000000     0          
O        O      0.811675000000     0.950525000000     0.549475000000     0          
O        O      0.899960000000     0.899960000000     0.539340000000     0          
O        O      0.888305000000     0.950475000000     0.549525000000     0          
Si       Si     0.575045000000     0.819050000000     0.531060000000     0          
Si       Si     0.575130000000     0.880990000000     0.531125000000     0          
Si       Si     0.625000000000     0.781085000000     0.531085000000     0          
O        O      0.583280000000     0.850000000000     0.535710000000     0          
O        O      0.599765000000     0.799745000000     0.539005000000     0          
O        O      0.567260000000     0.814400000000     0.500000000000     0          
O        O      0.617325000000     0.750000000000     0.535790000000     0          
O        O      0.567670000000     0.885785000000     0.500000000000     0          
O        O      0.549475000000     0.811675000000     0.549475000000     0          
O        O      0.600040000000     0.899960000000     0.539340000000     0          
O        O      0.549525000000     0.888305000000     0.549525000000     0          
Si       Si     0.680950000000     0.924955000000     0.968940000000     0          
Si       Si     0.619010000000     0.924870000000     0.968875000000     0          
Si       Si     0.718915000000     0.875000000000     0.968915000000     0          
O        O      0.650000000000     0.916720000000     0.964290000000     0          
O        O      0.700255000000     0.900235000000     0.960995000000     0          
O        O      0.685600000000     0.932740000000     0.500000000000     0          
O        O      0.750000000000     0.882675000000     0.964210000000     0          
O        O      0.614215000000     0.932330000000     0.500000000000     0          
O        O      0.688325000000     0.950525000000     0.950525000000     0          
O        O      0.600040000000     0.899960000000     0.960660000000     0          
O        O      0.611695000000     0.950475000000     0.950475000000     0          
Si       Si     0.575045000000     0.680950000000     0.968940000000     0          
Si       Si     0.575130000000     0.619010000000     0.968875000000     0          
Si       Si     0.625000000000     0.718915000000     0.968915000000     0          
O        O      0.583280000000     0.650000000000     0.964290000000     0          
O        O      0.599765000000     0.700255000000     0.960995000000     0          
O        O      0.567260000000     0.685600000000     0.500000000000     0          
O        O      0.617325000000     0.750000000000     0.964210000000     0          
O        O      0.567670000000     0.614215000000     0.500000000000     0          
O        O      0.549475000000     0.688325000000     0.950525000000     0          
O        O      0.600040000000     0.600040000000     0.960660000000     0          
O        O      0.549525000000     0.611695000000     0.950475000000     0          
Si       Si     0.819050000000     0.575045000000     0.968940000000     0          
Si       Si     0.880990000000     0.575130000000     0.968875000000     0          
Si       Si     0.781085000000     0.625000000000     0.968915000000     0          
O        O      0.850000000000     0.583280000000     0.964290000000     0          
O        O      0.799745000000     0.599765000000     0.960995000000     0          
O        O      0.814400000000     0.567260000000     0.500000000000     0          
O        O      0.750000000000     0.617325000000     0.964210000000     0          
O        O      0.885785000000     0.567670000000     0.500000000000     0          
O        O      0.811675000000     0.549475000000     0.950525000000     0          
O        O      0.899960000000     0.600040000000     0.960660000000     0          
O        O      0.888305000000     0.549525000000     0.950475000000     0          
Si       Si     0.924955000000     0.819050000000     0.968940000000     0          
Si       Si     0.924870000000     0.880990000000     0.968875000000     0          
Si       Si     0.875000000000     0.781085000000     0.968915000000     0          
O        O      0.916720000000     0.850000000000     0.964290000000     0          
O        O      0.900235000000     0.799745000000     0.960995000000     0          
O        O      0.932740000000     0.814400000000     0.500000000000     0          
O        O      0.882675000000     0.750000000000     0.964210000000     0          
O        O      0.932330000000     0.885785000000     0.500000000000     0          
O        O      0.950525000000     0.811675000000     0.950525000000     0          
O        O      0.899960000000     0.899960000000     0.960660000000     0          
O        O      0.950475000000     0.888305000000     0.950475000000     0          
Si       Si     0.531060000000     0.680950000000     0.575045000000     0          
Si       Si     0.531125000000     0.619010000000     0.575130000000     0          
Si       Si     0.531085000000     0.718915000000     0.625000000000     0          
O        O      0.535710000000     0.650000000000     0.583280000000     0          
O        O      0.539005000000     0.700255000000     0.599765000000     0          
O        O      0.500000000000     0.685600000000     0.567260000000     0          
O        O      0.535790000000     0.750000000000     0.617325000000     0          
O        O      0.500000000000     0.614215000000     0.567670000000     0          
O        O      0.549475000000     0.688325000000     0.549475000000     0          
O        O      0.539340000000     0.600040000000     0.600040000000     0          
O        O      0.549525000000     0.611695000000     0.549525000000     0          
Si       Si     0.819050000000     0.531060000000     0.575045000000     0          
Si       Si     0.880990000000     0.531125000000     0.575130000000     0          
Si       Si     0.781085000000     0.531085000000     0.625000000000     0          
O        O      0.850000000000     0.535710000000     0.583280000000     0          
O        O      0.799745000000     0.539005000000     0.599765000000     0          
O        O      0.814400000000     0.500000000000     0.567260000000     0          
O        O      0.750000000000     0.535790000000     0.617325000000     0          
O        O      0.885785000000     0.500000000000     0.567670000000     0          
O        O      0.811675000000     0.549475000000     0.549475000000     0          
O        O      0.899960000000     0.539340000000     0.600040000000     0          
O        O      0.888305000000     0.549525000000     0.549525000000     0          
Si       Si     0.968940000000     0.819050000000     0.575045000000     0          
Si       Si     0.968875000000     0.880990000000     0.575130000000     0          
Si       Si     0.968915000000     0.781085000000     0.625000000000     0          
O        O      0.964290000000     0.850000000000     0.583280000000     0          
O        O      0.960995000000     0.799745000000     0.599765000000     0          
O        O      0.500000000000     0.814400000000     0.567260000000     0          
O        O      0.964210000000     0.750000000000     0.617325000000     0          
O        O      0.500000000000     0.885785000000     0.567670000000     0          
O        O      0.950525000000     0.811675000000     0.549475000000     0          
O        O      0.960660000000     0.899960000000     0.600040000000     0          
O        O      0.950475000000     0.888305000000     0.549525000000     0          
Si       Si     0.680950000000     0.968940000000     0.575045000000     0          
Si       Si     0.619010000000     0.968875000000     0.575130000000     0          
Si       Si     0.718915000000     0.968915000000     0.625000000000     0          
O        O      0.650000000000     0.964290000000     0.583280000000     0          
O        O      0.700255000000     0.960995000000     0.599765000000     0          
O        O      0.685600000000     0.500000000000     0.567260000000     0          
O        O      0.750000000000     0.964210000000     0.617325000000     0          
O        O      0.614215000000     0.500000000000     0.567670000000     0          
O        O      0.688325000000     0.950525000000     0.549475000000     0          
O        O      0.600040000000     0.960660000000     0.600040000000     0          
O        O      0.611695000000     0.950475000000     0.549525000000     0          
Si       Si     0.531060000000     0.819050000000     0.924955000000     0          
Si       Si     0.531125000000     0.880990000000     0.924870000000     0          
Si       Si     0.531085000000     0.781085000000     0.875000000000     0          
O        O      0.535710000000     0.850000000000     0.916720000000     0          
O        O      0.539005000000     0.799745000000     0.900235000000     0          
O        O      0.500000000000     0.814400000000     0.932740000000     0          
O        O      0.535790000000     0.750000000000     0.882675000000     0          
O        O      0.500000000000     0.885785000000     0.932330000000     0          
O        O      0.549475000000     0.811675000000     0.950525000000     0          
O        O      0.539340000000     0.899960000000     0.899960000000     0          
O        O      0.549525000000     0.888305000000     0.950475000000     0          
Si       Si     0.680950000000     0.531060000000     0.924955000000     0          
Si       Si     0.619010000000     0.531125000000     0.924870000000     0          
Si       Si     0.718915000000     0.531085000000     0.875000000000     0          
O        O      0.650000000000     0.535710000000     0.916720000000     0          
O        O      0.700255000000     0.539005000000     0.900235000000     0          
O        O      0.685600000000     0.500000000000     0.932740000000     0          
O        O      0.750000000000     0.535790000000     0.882675000000     0          
O        O      0.614215000000     0.500000000000     0.932330000000     0          
O        O      0.688325000000     0.549475000000     0.950525000000     0          
O        O      0.600040000000     0.539340000000     0.899960000000     0          
O        O      0.611695000000     0.549525000000     0.950475000000     0          
Si       Si     0.968940000000     0.680950000000     0.924955000000     0          
Si       Si     0.968875000000     0.619010000000     0.924870000000     0          
Si       Si     0.968915000000     0.718915000000     0.875000000000     0          
O        O      0.964290000000     0.650000000000     0.916720000000     0          
O        O      0.960995000000     0.700255000000     0.900235000000     0          
O        O      0.500000000000     0.685600000000     0.932740000000     0          
O        O      0.964210000000     0.750000000000     0.882675000000     0          
O        O      0.500000000000     0.614215000000     0.932330000000     0          
O        O      0.950525000000     0.688325000000     0.950525000000     0          
O        O      0.960660000000     0.600040000000     0.899960000000     0          
O        O      0.950475000000     0.611695000000     0.950475000000     0          
Si       Si     0.819050000000     0.968940000000     0.924955000000     0          
Si       Si     0.880990000000     0.968875000000     0.924870000000     0          
Si       Si     0.781085000000     0.968915000000     0.875000000000     0          
O        O      0.850000000000     0.964290000000     0.916720000000     0          
O        O      0.799745000000     0.960995000000     0.900235000000     0          
O        O      0.814400000000     0.500000000000     0.932740000000     0          
O        O      0.750000000000     0.964210000000     0.882675000000     0          
O        O      0.885785000000     0.500000000000     0.932330000000     0          
O        O      0.811675000000     0.950525000000     0.950525000000     0          
O        O      0.899960000000     0.960660000000     0.899960000000     0          
O        O      0.888305000000     0.950475000000     0.950475000000     0          
Si       Si     0.575045000000     0.531060000000     0.680950000000     0          
Si       Si     0.575130000000     0.531125000000     0.619010000000     0          
Si       Si     0.625000000000     0.531085000000     0.718915000000     0          
O        O      0.583280000000     0.535710000000     0.650000000000     0          
O        O      0.599765000000     0.539005000000     0.700255000000     0          
O        O      0.567260000000     0.500000000000     0.685600000000     0          
O        O      0.617325000000     0.535790000000     0.750000000000     0          
O        O      0.567670000000     0.500000000000     0.614215000000     0          
O        O      0.549475000000     0.549475000000     0.688325000000     0          
O        O      0.600040000000     0.539340000000     0.600040000000     0          
O        O      0.549525000000     0.549525000000     0.611695000000     0          
Si       Si     0.575045000000     0.968940000000     0.819050000000     0          
Si       Si     0.575130000000     0.968875000000     0.880990000000     0          
Si       Si     0.625000000000     0.968915000000     0.781085000000     0          
O        O      0.583280000000     0.964290000000     0.850000000000     0          
O        O      0.599765000000     0.960995000000     0.799745000000     0          
O        O      0.567260000000     0.500000000000     0.814400000000     0          
O        O      0.617325000000     0.964210000000     0.750000000000     0          
O        O      0.567670000000     0.500000000000     0.885785000000     0          
O        O      0.549475000000     0.950525000000     0.811675000000     0          
O        O      0.600040000000     0.960660000000     0.899960000000     0          
O        O      0.549525000000     0.950475000000     0.888305000000     0          
Si       Si     0.531060000000     0.575045000000     0.819050000000     0          
Si       Si     0.531125000000     0.575130000000     0.880990000000     0          
Si       Si     0.531085000000     0.625000000000     0.781085000000     0          
O        O      0.535710000000     0.583280000000     0.850000000000     0          
O        O      0.539005000000     0.599765000000     0.799745000000     0          
O        O      0.500000000000     0.567260000000     0.814400000000     0          
O        O      0.535790000000     0.617325000000     0.750000000000     0          
O        O      0.500000000000     0.567670000000     0.885785000000     0          
O        O      0.549475000000     0.549475000000     0.811675000000     0          
O        O      0.539340000000     0.600040000000     0.899960000000     0          
O        O      0.549525000000     0.549525000000     0.888305000000     0          
Si       Si     0.924955000000     0.531060000000     0.819050000000     0          
Si       Si     0.924870000000     0.531125000000     0.880990000000     0          
Si       Si     0.875000000000     0.531085000000     0.781085000000     0          
O        O      0.916720000000     0.535710000000     0.850000000000     0          
O        O      0.900235000000     0.539005000000     0.799745000000     0          
O        O      0.932740000000     0.500000000000     0.814400000000     0          
O        O      0.882675000000     0.535790000000     0.750000000000     0          
O        O      0.932330000000     0.500000000000     0.885785000000     0          
O        O      0.950525000000     0.549475000000     0.811675000000     0          
O        O      0.899960000000     0.539340000000     0.899960000000     0          
O        O      0.950475000000     0.549525000000     0.888305000000     0          
Si       Si     0.968940000000     0.924955000000     0.819050000000     0          
Si       Si     0.968875000000     0.924870000000     0.880990000000     0          
Si       Si     0.968915000000     0.875000000000     0.781085000000     0          
O        O      0.964290000000     0.916720000000     0.850000000000     0          
O        O      0.960995000000     0.900235000000     0.799745000000     0          
O        O      0.500000000000     0.932740000000     0.814400000000     0          
O        O      0.964210000000     0.882675000000     0.750000000000     0          
O        O      0.500000000000     0.932330000000     0.885785000000     0          
O        O      0.950525000000     0.950525000000     0.811675000000     0          
O        O      0.960660000000     0.899960000000     0.899960000000     0          
O        O      0.950475000000     0.950475000000     0.888305000000     0          
Si       Si     0.924955000000     0.968940000000     0.680950000000     0          
Si       Si     0.924870000000     0.968875000000     0.619010000000     0          
Si       Si     0.875000000000     0.968915000000     0.718915000000     0          
O        O      0.916720000000     0.964290000000     0.650000000000     0          
O        O      0.900235000000     0.960995000000     0.700255000000     0          
O        O      0.932740000000     0.500000000000     0.685600000000     0          
O        O      0.882675000000     0.964210000000     0.750000000000     0          
O        O      0.932330000000     0.500000000000     0.614215000000     0          
O        O      0.950525000000     0.950525000000     0.688325000000     0          
O        O      0.899960000000     0.960660000000     0.600040000000     0          
O        O      0.950475000000     0.950475000000     0.611695000000     0          
Si       Si     0.531060000000     0.924955000000     0.680950000000     0          
Si       Si     0.531125000000     0.924870000000     0.619010000000     0          
Si       Si     0.531085000000     0.875000000000     0.718915000000     0          
O        O      0.535710000000     0.916720000000     0.650000000000     0          
O        O      0.539005000000     0.900235000000     0.700255000000     0          
O        O      0.500000000000     0.932740000000     0.685600000000     0          
O        O      0.535790000000     0.882675000000     0.750000000000     0          
O        O      0.500000000000     0.932330000000     0.614215000000     0          
O        O      0.549475000000     0.950525000000     0.688325000000     0          
O        O      0.539340000000     0.899960000000     0.600040000000     0          
O        O      0.549525000000     0.950475000000     0.611695000000     0          
Si       Si     0.968940000000     0.575045000000     0.680950000000     0          
Si       Si     0.968875000000     0.575130000000     0.619010000000     0          
Si       Si     0.968915000000     0.625000000000     0.718915000000     0          
O        O      0.964290000000     0.583280000000     0.650000000000     0          
O        O      0.960995000000     0.599765000000     0.700255000000     0          
O        O      0.500000000000     0.567260000000     0.685600000000     0          
O        O      0.964210000000     0.617325000000     0.750000000000     0          
O        O      0.500000000000     0.567670000000     0.614215000000     0          
O        O      0.950525000000     0.549475000000     0.688325000000     0          
O        O      0.960660000000     0.600040000000     0.600040000000     0          
O        O      0.950475000000     0.549525000000     0.611695000000     0          
Si       Si     0.819050000000     0.924955000000     0.968940000000     0          
Si       Si     0.880990000000     0.924870000000     0.968875000000     0          
Si       Si     0.781085000000     0.875000000000     0.968915000000     0          
O        O      0.850000000000     0.916720000000     0.964290000000     0          
O        O      0.799745000000     0.900235000000     0.960995000000     0          
Si       Si     0.575045000000     0.819050000000     0.968940000000     0          
Si       Si     0.575130000000     0.880990000000     0.968875000000     0          
Si       Si     0.625000000000     0.781085000000     0.968915000000     0          
O        O      0.583280000000     0.850000000000     0.964290000000     0          
O        O      0.599765000000     0.799745000000     0.960995000000     0          
Si       Si     0.680950000000     0.575045000000     0.968940000000     0          
Si       Si     0.619010000000     0.575130000000     0.968875000000     0          
Si       Si     0.718915000000     0.625000000000     0.968915000000     0          
O        O      0.650000000000     0.583280000000     0.964290000000     0          
O        O      0.700255000000     0.599765000000     0.960995000000     0          
Si       Si     0.924955000000     0.680950000000     0.968940000000     0          
Si       Si     0.924870000000     0.619010000000     0.968875000000     0          
Si       Si     0.875000000000     0.718915000000     0.968915000000     0          
O        O      0.916720000000     0.650000000000     0.964290000000     0          
O        O      0.900235000000     0.700255000000     0.960995000000     0          
Si       Si     0.819050000000     0.575045000000     0.531060000000     0          
Si       Si     0.880990000000     0.575130000000     0.531125000000     0          
Si       Si     0.781085000000     0.625000000000     0.531085000000     0          
O        O      0.850000000000     0.583280000000     0.535710000000     0          
O        O      0.799745000000     0.599765000000     0.539005000000     0          
Si       Si     0.924955000000     0.819050000000     0.531060000000     0          
Si       Si     0.924870000000     0.880990000000     0.531125000000     0          
Si       Si     0.875000000000     0.781085000000     0.531085000000     0          
O        O      0.916720000000     0.850000000000     0.535710000000     0          
O        O      0.900235000000     0.799745000000     0.539005000000     0          
Si       Si     0.680950000000     0.924955000000     0.531060000000     0          
Si       Si     0.619010000000     0.924870000000     0.531125000000     0          
Si       Si     0.718915000000     0.875000000000     0.531085000000     0          
O        O      0.650000000000     0.916720000000     0.535710000000     0          
O        O      0.700255000000     0.900235000000     0.539005000000     0          
Si       Si     0.575045000000     0.680950000000     0.531060000000     0          
Si       Si     0.575130000000     0.619010000000     0.531125000000     0          
Si       Si     0.625000000000     0.718915000000     0.531085000000     0          
O        O      0.583280000000     0.650000000000     0.535710000000     0          
O        O      0.599765000000     0.700255000000     0.539005000000     0          
Si       Si     0.968940000000     0.819050000000     0.924955000000     0          
Si       Si     0.968875000000     0.880990000000     0.924870000000     0          
Si       Si     0.968915000000     0.781085000000     0.875000000000     0          
O        O      0.964290000000     0.850000000000     0.916720000000     0          
O        O      0.960995000000     0.799745000000     0.900235000000     0          
Si       Si     0.680950000000     0.968940000000     0.924955000000     0          
Si       Si     0.619010000000     0.968875000000     0.924870000000     0          
Si       Si     0.718915000000     0.968915000000     0.875000000000     0          
O        O      0.650000000000     0.964290000000     0.916720000000     0          
O        O      0.700255000000     0.960995000000     0.900235000000     0          
Si       Si     0.531060000000     0.680950000000     0.924955000000     0          
Si       Si     0.531125000000     0.619010000000     0.924870000000     0          
Si       Si     0.531085000000     0.718915000000     0.875000000000     0          
O        O      0.535710000000     0.650000000000     0.916720000000     0          
O        O      0.539005000000     0.700255000000     0.900235000000     0          
Si       Si     0.819050000000     0.531060000000     0.924955000000     0          
Si       Si     0.880990000000     0.531125000000     0.924870000000     0          
Si       Si     0.781085000000     0.531085000000     0.875000000000     0          
O        O      0.850000000000     0.535710000000     0.916720000000     0          
O        O      0.799745000000     0.539005000000     0.900235000000     0          
Si       Si     0.968940000000     0.680950000000     0.575045000000     0          
Si       Si     0.968875000000     0.619010000000     0.575130000000     0          
Si       Si     0.968915000000     0.718915000000     0.625000000000     0          
O        O      0.964290000000     0.650000000000     0.583280000000     0          
O        O      0.960995000000     0.700255000000     0.599765000000     0          
Si       Si     0.819050000000     0.968940000000     0.575045000000     0          
Si       Si     0.880990000000     0.968875000000     0.575130000000     0          
Si       Si     0.781085000000     0.968915000000     0.625000000000     0          
O        O      0.850000000000     0.964290000000     0.583280000000     0          
O        O      0.799745000000     0.960995000000     0.599765000000     0          
Si       Si     0.531060000000     0.819050000000     0.575045000000     0          
Si       Si     0.531125000000     0.880990000000     0.575130000000     0          
Si       Si     0.531085000000     0.781085000000     0.625000000000     0          
O        O      0.535710000000     0.850000000000     0.583280000000     0          
O        O      0.539005000000     0.799745000000     0.599765000000     0          
Si       Si     0.680950000000     0.531060000000     0.575045000000     0          
Si       Si     0.619010000000     0.531125000000     0.575130000000     0          
Si       Si     0.718915000000     0.531085000000     0.625000000000     0          
O        O      0.650000000000     0.535710000000     0.583280000000     0          
O        O      0.700255000000     0.539005000000     0.599765000000     0          
Si       Si     0.924955000000     0.968940000000     0.819050000000     0          
Si       Si     0.924870000000     0.968875000000     0.880990000000     0          
Si       Si     0.875000000000     0.968915000000     0.781085000000     0          
O        O      0.916720000000     0.964290000000     0.850000000000     0          
O        O      0.900235000000     0.960995000000     0.799745000000     0          
Si       Si     0.924955000000     0.531060000000     0.680950000000     0          
Si       Si     0.924870000000     0.531125000000     0.619010000000     0          
Si       Si     0.875000000000     0.531085000000     0.718915000000     0          
O        O      0.916720000000     0.535710000000     0.650000000000     0          
O        O      0.900235000000     0.539005000000     0.700255000000     0          
Si       Si     0.968940000000     0.924955000000     0.680950000000     0          
Si       Si     0.968875000000     0.924870000000     0.619010000000     0          
Si       Si     0.968915000000     0.875000000000     0.718915000000     0          
O        O      0.964290000000     0.916720000000     0.650000000000     0          
O        O      0.960995000000     0.900235000000     0.700255000000     0          
Si       Si     0.575045000000     0.968940000000     0.680950000000     0          
Si       Si     0.575130000000     0.968875000000     0.619010000000     0          
Si       Si     0.625000000000     0.968915000000     0.718915000000     0          
O        O      0.583280000000     0.964290000000     0.650000000000     0          
O        O      0.599765000000     0.960995000000     0.700255000000     0          
Si       Si     0.531060000000     0.575045000000     0.680950000000     0          
Si       Si     0.531125000000     0.575130000000     0.619010000000     0          
Si       Si     0.531085000000     0.625000000000     0.718915000000     0          
O        O      0.535710000000     0.583280000000     0.650000000000     0          
O        O      0.539005000000     0.599765000000     0.700255000000     0          
Si       Si     0.575045000000     0.531060000000     0.819050000000     0          
Si       Si     0.575130000000     0.531125000000     0.880990000000     0          
Si       Si     0.625000000000     0.531085000000     0.781085000000     0          
O        O      0.583280000000     0.535710000000     0.850000000000     0          
O        O      0.599765000000     0.539005000000     0.799745000000     0          
Si       Si     0.968940000000     0.575045000000     0.819050000000     0          
Si       Si     0.968875000000     0.575130000000     0.880990000000     0          
Si       Si     0.968915000000     0.625000000000     0.781085000000     0          
O        O      0.964290000000     0.583280000000     0.850000000000     0          
O        O      0.960995000000     0.599765000000     0.799745000000     0          
Si       Si     0.531060000000     0.924955000000     0.819050000000     0          
Si       Si     0.531125000000     0.924870000000     0.880990000000     0          
Si       Si     0.531085000000     0.875000000000     0.781085000000     0          
O        O      0.535710000000     0.916720000000     0.850000000000     0          
O        O      0.539005000000     0.900235000000     0.799745000000     0          
Si       Si     0.930950000000     0.825045000000     0.781060000000     0          
Si       Si     0.869010000000     0.825130000000     0.781125000000     0          
O        O      0.900000000000     0.833280000000     0.785710000000     0          
O        O      0.950255000000     0.849765000000     0.789005000000     0          
O        O      0.935600000000     0.817260000000     0.750000000000     0          
O        O      0.500000000000     0.867325000000     0.785790000000     0          
O        O      0.864215000000     0.817670000000     0.750000000000     0          
O        O      0.938325000000     0.799475000000     0.799475000000     0          
O        O      0.850040000000     0.850040000000     0.789340000000     0          
O        O      0.861695000000     0.799525000000     0.799525000000     0          
Si       Si     0.674955000000     0.930950000000     0.781060000000     0          
Si       Si     0.674870000000     0.869010000000     0.781125000000     0          
O        O      0.666720000000     0.900000000000     0.785710000000     0          
O        O      0.650235000000     0.950255000000     0.789005000000     0          
O        O      0.682740000000     0.935600000000     0.750000000000     0          
O        O      0.632675000000     0.500000000000     0.785790000000     0          
O        O      0.682330000000     0.864215000000     0.750000000000     0          
O        O      0.700525000000     0.938325000000     0.799475000000     0          
O        O      0.649960000000     0.850040000000     0.789340000000     0          
O        O      0.700475000000     0.861695000000     0.799525000000     0          
Si       Si     0.569050000000     0.674955000000     0.781060000000     0          
Si       Si     0.630990000000     0.674870000000     0.781125000000     0          
O        O      0.600000000000     0.666720000000     0.785710000000     0          
O        O      0.549745000000     0.650235000000     0.789005000000     0          
O        O      0.564400000000     0.682740000000     0.750000000000     0          
O        O      0.500000000000     0.632675000000     0.785790000000     0          
O        O      0.635785000000     0.682330000000     0.750000000000     0          
O        O      0.561675000000     0.700525000000     0.799475000000     0          
O        O      0.649960000000     0.649960000000     0.789340000000     0          
O        O      0.638305000000     0.700475000000     0.799525000000     0          
Si       Si     0.825045000000     0.569050000000     0.781060000000     0          
Si       Si     0.825130000000     0.630990000000     0.781125000000     0          
O        O      0.833280000000     0.600000000000     0.785710000000     0          
O        O      0.849765000000     0.549745000000     0.789005000000     0          
O        O      0.817260000000     0.564400000000     0.750000000000     0          
O        O      0.867325000000     0.500000000000     0.785790000000     0          
O        O      0.817670000000     0.635785000000     0.750000000000     0          
O        O      0.799475000000     0.561675000000     0.799475000000     0          
O        O      0.850040000000     0.649960000000     0.789340000000     0          
O        O      0.799525000000     0.638305000000     0.799525000000     0          
Si       Si     0.930950000000     0.674955000000     0.718940000000     0          
Si       Si     0.869010000000     0.674870000000     0.718875000000     0          
O        O      0.900000000000     0.666720000000     0.714290000000     0          
O        O      0.950255000000     0.650235000000     0.710995000000     0          
O        O      0.935600000000     0.682740000000     0.750000000000     0          
O        O      0.500000000000     0.632675000000     0.714210000000     0          
O        O      0.864215000000     0.682330000000     0.750000000000     0          
O        O      0.938325000000     0.700525000000     0.700525000000     0          
O        O      0.850040000000     0.649960000000     0.710660000000     0          
O        O      0.861695000000     0.700475000000     0.700475000000     0          
Si       Si     0.825045000000     0.930950000000     0.718940000000     0          
Si       Si     0.825130000000     0.869010000000     0.718875000000     0          
O        O      0.833280000000     0.900000000000     0.714290000000     0          
O        O      0.849765000000     0.950255000000     0.710995000000     0          
O        O      0.817260000000     0.935600000000     0.750000000000     0          
O        O      0.867325000000     0.500000000000     0.714210000000     0          
O        O      0.817670000000     0.864215000000     0.750000000000     0          
O        O      0.799475000000     0.938325000000     0.700525000000     0          
O        O      0.850040000000     0.850040000000     0.710660000000     0          
O        O      0.799525000000     0.861695000000     0.700475000000     0          
Si       Si     0.569050000000     0.825045000000     0.718940000000     0          
Si       Si     0.630990000000     0.825130000000     0.718875000000     0          
O        O      0.600000000000     0.833280000000     0.714290000000     0          
O        O      0.549745000000     0.849765000000     0.710995000000     0          
O        O      0.564400000000     0.817260000000     0.750000000000     0          
O        O      0.500000000000     0.867325000000     0.714210000000     0          
O        O      0.635785000000     0.817670000000     0.750000000000     0          
O        O      0.561675000000     0.799475000000     0.700525000000     0          
O        O      0.649960000000     0.850040000000     0.710660000000     0          
O        O      0.638305000000     0.799525000000     0.700475000000     0          
Si       Si     0.674955000000     0.569050000000     0.718940000000     0          
Si       Si     0.674870000000     0.630990000000     0.718875000000     0          
O        O      0.666720000000     0.600000000000     0.714290000000     0          
O        O      0.650235000000     0.549745000000     0.710995000000     0          
O        O      0.682740000000     0.564400000000     0.750000000000     0          
O        O      0.632675000000     0.500000000000     0.714210000000     0          
O        O      0.682330000000     0.635785000000     0.750000000000     0          
O        O      0.700525000000     0.561675000000     0.700525000000     0          
O        O      0.649960000000     0.649960000000     0.710660000000     0          
O        O      0.700475000000     0.638305000000     0.700475000000     0          
Si       Si     0.781060000000     0.930950000000     0.825045000000     0          
Si       Si     0.781125000000     0.869010000000     0.825130000000     0          
O        O      0.785710000000     0.900000000000     0.833280000000     0          
O        O      0.789005000000     0.950255000000     0.849765000000     0          
O        O      0.750000000000     0.935600000000     0.817260000000     0          
O        O      0.785790000000     0.500000000000     0.867325000000     0          
O        O      0.750000000000     0.864215000000     0.817670000000     0          
O        O      0.799475000000     0.938325000000     0.799475000000     0          
O        O      0.789340000000     0.850040000000     0.850040000000     0          
O        O      0.799525000000     0.861695000000     0.799525000000     0          
Si       Si     0.569050000000     0.781060000000     0.825045000000     0          
Si       Si     0.630990000000     0.781125000000     0.825130000000     0          
O        O      0.600000000000     0.785710000000     0.833280000000     0          
O        O      0.549745000000     0.789005000000     0.849765000000     0          
O        O      0.564400000000     0.750000000000     0.817260000000     0          
O        O      0.500000000000     0.785790000000     0.867325000000     0          
O        O      0.635785000000     0.750000000000     0.817670000000     0          
O        O      0.561675000000     0.799475000000     0.799475000000     0          
O        O      0.649960000000     0.789340000000     0.850040000000     0          
O        O      0.638305000000     0.799525000000     0.799525000000     0          
Si       Si     0.718940000000     0.569050000000     0.825045000000     0          
Si       Si     0.718875000000     0.630990000000     0.825130000000     0          
O        O      0.714290000000     0.600000000000     0.833280000000     0          
O        O      0.710995000000     0.549745000000     0.849765000000     0          
O        O      0.750000000000     0.564400000000     0.817260000000     0          
O        O      0.714210000000     0.500000000000     0.867325000000     0          
O        O      0.750000000000     0.635785000000     0.817670000000     0          
O        O      0.700525000000     0.561675000000     0.799475000000     0          
O        O      0.710660000000     0.649960000000     0.850040000000     0          
O        O      0.700475000000     0.638305000000     0.799525000000     0          
Si       Si     0.930950000000     0.718940000000     0.825045000000     0          
Si       Si     0.869010000000     0.718875000000     0.825130000000     0          
O        O      0.900000000000     0.714290000000     0.833280000000     0          
O        O      0.950255000000     0.710995000000     0.849765000000     0          
O        O      0.935600000000     0.750000000000     0.817260000000     0          
O        O      0.500000000000     0.714210000000     0.867325000000     0          
O        O      0.864215000000     0.750000000000     0.817670000000     0          
O        O      0.938325000000     0.700525000000     0.799475000000     0          
O        O      0.850040000000     0.710660000000     0.850040000000     0          
O        O      0.861695000000     0.700475000000     0.799525000000     0          
Si       Si     0.781060000000     0.569050000000     0.674955000000     0          
Si       Si     0.781125000000     0.630990000000     0.674870000000     0          
O        O      0.785710000000     0.600000000000     0.666720000000     0          
O        O      0.789005000000     0.549745000000     0.650235000000     0          
O        O      0.750000000000     0.564400000000     0.682740000000     0          
O        O      0.785790000000     0.500000000000     0.632675000000     0          
O        O      0.750000000000     0.635785000000     0.682330000000     0          
O        O      0.799475000000     0.561675000000     0.700525000000     0          
O        O      0.789340000000     0.649960000000     0.649960000000     0          
O        O      0.799525000000     0.638305000000     0.700475000000     0          
Si       Si     0.930950000000     0.781060000000     0.674955000000     0          
Si       Si     0.869010000000     0.781125000000     0.674870000000     0          
O        O      0.900000000000     0.785710000000     0.666720000000     0          
O        O      0.950255000000     0.789005000000     0.650235000000     0          
O        O      0.935600000000     0.750000000000     0.682740000000     0          
O        O      0.500000000000     0.785790000000     0.632675000000     0          
O        O      0.864215000000     0.750000000000     0.682330000000     0          
O        O      0.938325000000     0.799475000000     0.700525000000     0          
O        O      0.850040000000     0.789340000000     0.649960000000     0          
O        O      0.861695000000     0.799525000000     0.700475000000     0          
Si       Si     0.718940000000     0.930950000000     0.674955000000     0          
Si       Si     0.718875000000     0.869010000000     0.674870000000     0          
O        O      0.714290000000     0.900000000000     0.666720000000     0          
O        O      0.710995000000     0.950255000000     0.650235000000     0          
O        O      0.750000000000     0.935600000000     0.682740000000     0          
O        O      0.714210000000     0.500000000000     0.632675000000     0          
O        O      0.750000000000     0.864215000000     0.682330000000     0          
O        O      0.700525000000     0.938325000000     0.700525000000     0          
O        O      0.710660000000     0.850040000000     0.649960000000     0          
O        O      0.700475000000     0.861695000000     0.700475000000     0          
Si       Si     0.569050000000     0.718940000000     0.674955000000     0          
Si       Si     0.630990000000     0.718875000000     0.674870000000     0          
O        O      0.600000000000     0.714290000000     0.666720000000     0          
O        O      0.549745000000     0.710995000000     0.650235000000     0          
O        O      0.564400000000     0.750000000000     0.682740000000     0          
O        O      0.500000000000     0.714210000000     0.632675000000     0          
O        O      0.635785000000     0.750000000000     0.682330000000     0          
O        O      0.561675000000     0.700525000000     0.700525000000     0          
O        O      0.649960000000     0.710660000000     0.649960000000     0          
O        O      0.638305000000     0.700475000000     0.700475000000     0          
Si       Si     0.825045000000     0.781060000000     0.930950000000     0          
Si       Si     0.825130000000     0.781125000000     0.869010000000     0          
O        O      0.833280000000     0.785710000000     0.900000000000     0          
O        O      0.849765000000     0.789005000000     0.950255000000     0          
O        O      0.817260000000     0.750000000000     0.935600000000     0          
O        O      0.867325000000     0.785790000000     0.500000000000     0          
O        O      0.817670000000     0.750000000000     0.864215000000     0          
O        O      0.799475000000     0.799475000000     0.938325000000     0          
O        O      0.850040000000     0.789340000000     0.850040000000     0          
O        O      0.799525000000     0.799525000000     0.861695000000     0          
Si       Si     0.825045000000     0.718940000000     0.569050000000     0          
Si       Si     0.825130000000     0.718875000000     0.630990000000     0          
O        O      0.833280000000     0.714290000000     0.600000000000     0          
O        O      0.849765000000     0.710995000000     0.549745000000     0          
O        O      0.817260000000     0.750000000000     0.564400000000     0          
O        O      0.867325000000     0.714210000000     0.500000000000     0          
O        O      0.817670000000     0.750000000000     0.635785000000     0          
O        O      0.799475000000     0.700525000000     0.561675000000     0          
O        O      0.850040000000     0.710660000000     0.649960000000     0          
O        O      0.799525000000     0.700475000000     0.638305000000     0          
Si       Si     0.781060000000     0.825045000000     0.569050000000     0          
Si       Si     0.781125000000     0.825130000000     0.630990000000     0          
O        O      0.785710000000     0.833280000000     0.600000000000     0          
O        O      0.789005000000     0.849765000000     0.549745000000     0          
O        O      0.750000000000     0.817260000000     0.564400000000     0          
O        O      0.785790000000     0.867325000000     0.500000000000     0          
O        O      0.750000000000     0.817670000000     0.635785000000     0          
O        O      0.799475000000     0.799475000000     0.561675000000     0          
O        O      0.789340000000     0.850040000000     0.649960000000     0          
O        O      0.799525000000     0.799525000000     0.638305000000     0          
Si       Si     0.674955000000     0.781060000000     0.569050000000     0          
Si       Si     0.674870000000     0.781125000000     0.630990000000     0          
O        O      0.666720000000     0.785710000000     0.600000000000     0          
O        O      0.650235000000     0.789005000000     0.549745000000     0          
O        O      0.682740000000     0.750000000000     0.564400000000     0          
O        O      0.632675000000     0.785790000000     0.500000000000     0          
O        O      0.682330000000     0.750000000000     0.635785000000     0          
O        O      0.700525000000     0.799475000000     0.561675000000     0          
O        O      0.649960000000     0.789340000000     0.649960000000     0          
O        O      0.700475000000     0.799525000000     0.638305000000     0          
Si       Si     0.718940000000     0.674955000000     0.569050000000     0          
Si       Si     0.718875000000     0.674870000000     0.630990000000     0          
O        O      0.714290000000     0.666720000000     0.600000000000     0          
O        O      0.710995000000     0.650235000000     0.549745000000     0          
O        O      0.750000000000     0.682740000000     0.564400000000     0          
O        O      0.714210000000     0.632675000000     0.500000000000     0          
O        O      0.750000000000     0.682330000000     0.635785000000     0          
O        O      0.700525000000     0.700525000000     0.561675000000     0          
O        O      0.710660000000     0.649960000000     0.649960000000     0          
O        O      0.700475000000     0.700475000000     0.638305000000     0          
Si       Si     0.674955000000     0.718940000000     0.930950000000     0          
Si       Si     0.674870000000     0.718875000000     0.869010000000     0          
O        O      0.666720000000     0.714290000000     0.900000000000     0          
O        O      0.650235000000     0.710995000000     0.950255000000     0          
O        O      0.682740000000     0.750000000000     0.935600000000     0          
O        O      0.632675000000     0.714210000000     0.500000000000     0          
O        O      0.682330000000     0.750000000000     0.864215000000     0          
O        O      0.700525000000     0.700525000000     0.938325000000     0          
O        O      0.649960000000     0.710660000000     0.850040000000     0          
O        O      0.700475000000     0.700475000000     0.861695000000     0          
Si       Si     0.781060000000     0.674955000000     0.930950000000     0          
Si       Si     0.781125000000     0.674870000000     0.869010000000     0          
O        O      0.785710000000     0.666720000000     0.900000000000     0          
O        O      0.789005000000     0.650235000000     0.950255000000     0          
O        O      0.750000000000     0.682740000000     0.935600000000     0          
O        O      0.785790000000     0.632675000000     0.500000000000     0          
O        O      0.750000000000     0.682330000000     0.864215000000     0          
O        O      0.799475000000     0.700525000000     0.938325000000     0          
O        O      0.789340000000     0.649960000000     0.850040000000     0          
O        O      0.799525000000     0.700475000000     0.861695000000     0          
Si       Si     0.718940000000     0.825045000000     0.930950000000     0          
Si       Si     0.718875000000     0.825130000000     0.869010000000     0          
O        O      0.714290000000     0.833280000000     0.900000000000     0          
O        O      0.710995000000     0.849765000000     0.950255000000     0          
O        O      0.750000000000     0.817260000000     0.935600000000     0          
O        O      0.714210000000     0.867325000000     0.500000000000     0          
O        O      0.750000000000     0.817670000000     0.864215000000     0          
O        O      0.700525000000     0.799475000000     0.938325000000     0          
O        O      0.710660000000     0.850040000000     0.850040000000     0          
O        O      0.700475000000     0.799525000000     0.861695000000     0          
Si       Si     0.569050000000     0.674955000000     0.718940000000     0          
Si       Si     0.630990000000     0.674870000000     0.718875000000     0          
O        O      0.600000000000     0.666720000000     0.714290000000     0          
O        O      0.549745000000     0.650235000000     0.710995000000     0          
Si       Si     0.825045000000     0.569050000000     0.718940000000     0          
Si       Si     0.825130000000     0.630990000000     0.718875000000     0          
O        O      0.833280000000     0.600000000000     0.714290000000     0          
O        O      0.849765000000     0.549745000000     0.710995000000     0          
Si       Si     0.930950000000     0.825045000000     0.718940000000     0          
Si       Si     0.869010000000     0.825130000000     0.718875000000     0          
O        O      0.900000000000     0.833280000000     0.714290000000     0          
O        O      0.950255000000     0.849765000000     0.710995000000     0          
Si       Si     0.674955000000     0.930950000000     0.718940000000     0          
Si       Si     0.674870000000     0.869010000000     0.718875000000     0          
O        O      0.666720000000     0.900000000000     0.714290000000     0          
O        O      0.650235000000     0.950255000000     0.710995000000     0          
Si       Si     0.569050000000     0.825045000000     0.781060000000     0          
Si       Si     0.630990000000     0.825130000000     0.781125000000     0          
O        O      0.600000000000     0.833280000000     0.785710000000     0          
O        O      0.549745000000     0.849765000000     0.789005000000     0          
Si       Si     0.674955000000     0.569050000000     0.781060000000     0          
Si       Si     0.674870000000     0.630990000000     0.781125000000     0          
O        O      0.666720000000     0.600000000000     0.785710000000     0          
O        O      0.650235000000     0.549745000000     0.789005000000     0          
Si       Si     0.930950000000     0.674955000000     0.781060000000     0          
Si       Si     0.869010000000     0.674870000000     0.781125000000     0          
O        O      0.900000000000     0.666720000000     0.785710000000     0          
O        O      0.950255000000     0.650235000000     0.789005000000     0          
Si       Si     0.825045000000     0.930950000000     0.781060000000     0          
Si       Si     0.825130000000     0.869010000000     0.781125000000     0          
O        O      0.833280000000     0.900000000000     0.785710000000     0          
O        O      0.849765000000     0.950255000000     0.789005000000     0          
Si       Si     0.718940000000     0.569050000000     0.674955000000     0          
Si       Si     0.718875000000     0.630990000000     0.674870000000     0          
O        O      0.714290000000     0.600000000000     0.666720000000     0          
O        O      0.710995000000     0.549745000000     0.650235000000     0          
Si       Si     0.930950000000     0.718940000000     0.674955000000     0          
Si       Si     0.869010000000     0.718875000000     0.674870000000     0          
O        O      0.900000000000     0.714290000000     0.666720000000     0          
O        O      0.950255000000     0.710995000000     0.650235000000     0          
Si       Si     0.781060000000     0.930950000000     0.674955000000     0          
Si       Si     0.781125000000     0.869010000000     0.674870000000     0          
O        O      0.785710000000     0.900000000000     0.666720000000     0          
O        O      0.789005000000     0.950255000000     0.650235000000     0          
Si       Si     0.569050000000     0.781060000000     0.674955000000     0          
Si       Si     0.630990000000     0.781125000000     0.674870000000     0          
O        O      0.600000000000     0.785710000000     0.666720000000     0          
O        O      0.549745000000     0.789005000000     0.650235000000     0          
Si       Si     0.718940000000     0.930950000000     0.825045000000     0          
Si       Si     0.718875000000     0.869010000000     0.825130000000     0          
O        O      0.714290000000     0.900000000000     0.833280000000     0          
O        O      0.710995000000     0.950255000000     0.849765000000     0          
Si       Si     0.569050000000     0.718940000000     0.825045000000     0          
Si       Si     0.630990000000     0.718875000000     0.825130000000     0          
O        O      0.600000000000     0.714290000000     0.833280000000     0          
O        O      0.549745000000     0.710995000000     0.849765000000     0          
Si       Si     0.781060000000     0.569050000000     0.825045000000     0          
Si       Si     0.781125000000     0.630990000000     0.825130000000     0          
O        O      0.785710000000     0.600000000000     0.833280000000     0          
O        O      0.789005000000     0.549745000000     0.849765000000     0          
Si       Si     0.930950000000     0.781060000000     0.825045000000     0          
Si       Si     0.869010000000     0.781125000000     0.825130000000     0          
O        O      0.900000000000     0.785710000000     0.833280000000     0          
O        O      0.950255000000     0.789005000000     0.849765000000     0          
Si       Si     0.674955000000     0.718940000000     0.569050000000     0          
Si       Si     0.674870000000     0.718875000000     0.630990000000     0          
O        O      0.666720000000     0.714290000000     0.600000000000     0          
O        O      0.650235000000     0.710995000000     0.549745000000     0          
Si       Si     0.674955000000     0.781060000000     0.930950000000     0          
Si       Si     0.674870000000     0.781125000000     0.869010000000     0          
O        O      0.666720000000     0.785710000000     0.900000000000     0          
O        O      0.650235000000     0.789005000000     0.950255000000     0          
Si       Si     0.718940000000     0.674955000000     0.930950000000     0          
Si       Si     0.718875000000     0.674870000000     0.869010000000     0          
O        O      0.714290000000     0.666720000000     0.900000000000     0          
O        O      0.710995000000     0.650235000000     0.950255000000     0          
Si       Si     0.825045000000     0.718940000000     0.930950000000     0          
Si       Si     0.825130000000     0.718875000000     0.869010000000     0          
O        O      0.833280000000     0.714290000000     0.900000000000     0          
O        O      0.849765000000     0.710995000000     0.950255000000     0          
Si       Si     0.781060000000     0.825045000000     0.930950000000     0          
Si       Si     0.781125000000     0.825130000000     0.869010000000     0          
O        O      0.785710000000     0.833280000000     0.900000000000     0          
O        O      0.789005000000     0.849765000000     0.950255000000     0          
Si       Si     0.825045000000     0.781060000000     0.569050000000     0          
Si       Si     0.825130000000     0.781125000000     0.630990000000     0          
O        O      0.833280000000     0.785710000000     0.600000000000     0          
O        O      0.849765000000     0.789005000000     0.549745000000     0          
Si       Si     0.718940000000     0.825045000000     0.569050000000     0          
Si       Si     0.718875000000     0.825130000000     0.630990000000     0          
O        O      0.714290000000     0.833280000000     0.600000000000     0          
O        O      0.710995000000     0.849765000000     0.549745000000     0          
Si       Si     0.781060000000     0.674955000000     0.569050000000     0          
Si       Si     0.781125000000     0.674870000000     0.630990000000     0          
O        O      0.785710000000     0.666720000000     0.600000000000     0          
O        O      0.789005000000     0.650235000000     0.549745000000     0          


