data_zeolite

_audit_creation_method RASPA-1.0
_audit_creation_date 2021-6-7
_audit_author_name ''

_cell_length_a    27.828
_cell_length_b    27.828
_cell_length_c    30.844
_cell_angle_alpha 90
_cell_angle_beta  90
_cell_angle_gamma 90
_cell_volume      23885.5

_symmetry_cell_setting          tetragonal
_symmetry_space_group_name_Hall 'P 1'
_symmetry_space_group_name_H-M  'P 1'
_symmetry_Int_Tables_number     1

_symmetry_equiv_pos_as_xyz 'x,y,z'

loop_
_atom_site_label
_atom_site_type_symbol
_atom_site_fract_x
_atom_site_fract_y
_atom_site_fract_z
_atom_site_charge
O        O      0.250000000000     0.000000000000     0.353000000000     0          
O        O      0.067000000000     0.000000000000     0.000000000000     0          
O        O      0.080750000000     0.080750000000     0.042400000000     0          
O        O      0.168100000000     0.047200000000     0.348200000000     0          
O        O      0.202850000000     0.000000000000     0.280400000000     0          
O        O      0.112450000000     0.000000000000     0.400800000000     0          
O        O      0.167100000000     0.100400000000     0.074000000000     0          
O        O      0.082100000000     0.082100000000     0.367500000000     0          
O        O      0.137700000000     0.137700000000     0.000000000000     0          
T        Si     0.128150000000     0.053150000000     0.385600000000     0          
T        Si     0.000000000000     0.196750000000     0.332300000000     0          
T        Si     0.121500000000     0.121500000000     0.048000000000     0          
T        Si     0.056850000000     0.056850000000     0.000000000000     0          
T        Si     0.000000000000     0.250000000000     0.250000000000     0          
O        O      0.000000000000     0.250000000000     0.353000000000     0          
O        O      0.000000000000     0.067000000000     0.000000000000     0          
O        O      0.419250000000     0.080750000000     0.042400000000     0          
O        O      0.452800000000     0.168100000000     0.348200000000     0          
O        O      0.000000000000     0.202850000000     0.280400000000     0          
O        O      0.000000000000     0.112450000000     0.400800000000     0          
O        O      0.399600000000     0.167100000000     0.074000000000     0          
O        O      0.417900000000     0.082100000000     0.367500000000     0          
O        O      0.362300000000     0.137700000000     0.000000000000     0          
T        Si     0.446850000000     0.128150000000     0.385600000000     0          
T        Si     0.303250000000     0.000000000000     0.332300000000     0          
T        Si     0.378500000000     0.121500000000     0.048000000000     0          
T        Si     0.443150000000     0.056850000000     0.000000000000     0          
T        Si     0.250000000000     0.000000000000     0.250000000000     0          
O        O      0.433000000000     0.000000000000     0.000000000000     0          
O        O      0.419250000000     0.419250000000     0.042400000000     0          
O        O      0.331900000000     0.452800000000     0.348200000000     0          
O        O      0.297150000000     0.000000000000     0.280400000000     0          
O        O      0.387550000000     0.000000000000     0.400800000000     0          
O        O      0.332900000000     0.399600000000     0.074000000000     0          
O        O      0.417900000000     0.417900000000     0.367500000000     0          
O        O      0.362300000000     0.362300000000     0.000000000000     0          
T        Si     0.371850000000     0.446850000000     0.385600000000     0          
T        Si     0.000000000000     0.303250000000     0.332300000000     0          
T        Si     0.378500000000     0.378500000000     0.048000000000     0          
T        Si     0.443150000000     0.443150000000     0.000000000000     0          
O        O      0.000000000000     0.433000000000     0.000000000000     0          
O        O      0.080750000000     0.419250000000     0.042400000000     0          
O        O      0.047200000000     0.331900000000     0.348200000000     0          
O        O      0.000000000000     0.297150000000     0.280400000000     0          
O        O      0.000000000000     0.387550000000     0.400800000000     0          
O        O      0.100400000000     0.332900000000     0.074000000000     0          
O        O      0.082100000000     0.417900000000     0.367500000000     0          
O        O      0.137700000000     0.362300000000     0.000000000000     0          
T        Si     0.053150000000     0.371850000000     0.385600000000     0          
T        Si     0.196750000000     0.000000000000     0.332300000000     0          
T        Si     0.121500000000     0.378500000000     0.048000000000     0          
T        Si     0.056850000000     0.443150000000     0.000000000000     0          
O        O      0.250000000000     0.000000000000     0.647000000000     0          
O        O      0.080750000000     0.419250000000     0.957600000000     0          
O        O      0.168100000000     0.452800000000     0.651800000000     0          
O        O      0.202850000000     0.000000000000     0.719600000000     0          
O        O      0.112450000000     0.000000000000     0.599200000000     0          
O        O      0.167100000000     0.399600000000     0.926000000000     0          
O        O      0.082100000000     0.417900000000     0.632500000000     0          
T        Si     0.128150000000     0.446850000000     0.614400000000     0          
T        Si     0.000000000000     0.303250000000     0.667700000000     0          
T        Si     0.121500000000     0.378500000000     0.952000000000     0          
T        Si     0.000000000000     0.250000000000     0.750000000000     0          
O        O      0.000000000000     0.250000000000     0.647000000000     0          
O        O      0.080750000000     0.080750000000     0.957600000000     0          
O        O      0.047200000000     0.168100000000     0.651800000000     0          
O        O      0.000000000000     0.202850000000     0.719600000000     0          
O        O      0.000000000000     0.112450000000     0.599200000000     0          
O        O      0.100400000000     0.167100000000     0.926000000000     0          
O        O      0.082100000000     0.082100000000     0.632500000000     0          
T        Si     0.053150000000     0.128150000000     0.614400000000     0          
T        Si     0.196750000000     0.000000000000     0.667700000000     0          
T        Si     0.121500000000     0.121500000000     0.952000000000     0          
T        Si     0.250000000000     0.000000000000     0.750000000000     0          
O        O      0.419250000000     0.080750000000     0.957600000000     0          
O        O      0.331900000000     0.047200000000     0.651800000000     0          
O        O      0.297150000000     0.000000000000     0.719600000000     0          
O        O      0.387550000000     0.000000000000     0.599200000000     0          
O        O      0.332900000000     0.100400000000     0.926000000000     0          
O        O      0.417900000000     0.082100000000     0.632500000000     0          
T        Si     0.371850000000     0.053150000000     0.614400000000     0          
T        Si     0.000000000000     0.196750000000     0.667700000000     0          
T        Si     0.378500000000     0.121500000000     0.952000000000     0          
O        O      0.419250000000     0.419250000000     0.957600000000     0          
O        O      0.452800000000     0.331900000000     0.651800000000     0          
O        O      0.000000000000     0.297150000000     0.719600000000     0          
O        O      0.000000000000     0.387550000000     0.599200000000     0          
O        O      0.399600000000     0.332900000000     0.926000000000     0          
O        O      0.417900000000     0.417900000000     0.632500000000     0          
T        Si     0.446850000000     0.371850000000     0.614400000000     0          
T        Si     0.303250000000     0.000000000000     0.667700000000     0          
T        Si     0.378500000000     0.378500000000     0.952000000000     0          
O        O      0.331900000000     0.452800000000     0.651800000000     0          
O        O      0.332900000000     0.399600000000     0.926000000000     0          
T        Si     0.371850000000     0.446850000000     0.614400000000     0          
O        O      0.047200000000     0.331900000000     0.651800000000     0          
O        O      0.100400000000     0.332900000000     0.926000000000     0          
T        Si     0.053150000000     0.371850000000     0.614400000000     0          
O        O      0.168100000000     0.047200000000     0.651800000000     0          
O        O      0.167100000000     0.100400000000     0.926000000000     0          
T        Si     0.128150000000     0.053150000000     0.614400000000     0          
O        O      0.452800000000     0.168100000000     0.651800000000     0          
O        O      0.399600000000     0.167100000000     0.926000000000     0          
T        Si     0.446850000000     0.128150000000     0.614400000000     0          
O        O      0.331900000000     0.047200000000     0.348200000000     0          
O        O      0.332900000000     0.100400000000     0.074000000000     0          
T        Si     0.371850000000     0.053150000000     0.385600000000     0          
O        O      0.452800000000     0.331900000000     0.348200000000     0          
O        O      0.399600000000     0.332900000000     0.074000000000     0          
T        Si     0.446850000000     0.371850000000     0.385600000000     0          
O        O      0.168100000000     0.452800000000     0.348200000000     0          
O        O      0.167100000000     0.399600000000     0.074000000000     0          
T        Si     0.128150000000     0.446850000000     0.385600000000     0          
O        O      0.047200000000     0.168100000000     0.348200000000     0          
O        O      0.100400000000     0.167100000000     0.074000000000     0          
T        Si     0.053150000000     0.128150000000     0.385600000000     0          
O        O      0.000000000000     0.250000000000     0.853000000000     0          
O        O      0.317000000000     0.250000000000     0.500000000000     0          
O        O      0.330750000000     0.330750000000     0.542400000000     0          
O        O      0.418100000000     0.297200000000     0.848200000000     0          
O        O      0.452850000000     0.250000000000     0.780400000000     0          
O        O      0.362450000000     0.250000000000     0.900800000000     0          
O        O      0.417100000000     0.350400000000     0.574000000000     0          
O        O      0.332100000000     0.332100000000     0.867500000000     0          
O        O      0.387700000000     0.387700000000     0.500000000000     0          
T        Si     0.378150000000     0.303150000000     0.885600000000     0          
T        Si     0.250000000000     0.446750000000     0.832300000000     0          
T        Si     0.371500000000     0.371500000000     0.548000000000     0          
T        Si     0.306850000000     0.306850000000     0.500000000000     0          
O        O      0.250000000000     0.000000000000     0.853000000000     0          
O        O      0.250000000000     0.317000000000     0.500000000000     0          
O        O      0.169250000000     0.330750000000     0.542400000000     0          
O        O      0.202800000000     0.418100000000     0.848200000000     0          
O        O      0.250000000000     0.452850000000     0.780400000000     0          
O        O      0.250000000000     0.362450000000     0.900800000000     0          
O        O      0.149600000000     0.417100000000     0.574000000000     0          
O        O      0.167900000000     0.332100000000     0.867500000000     0          
O        O      0.112300000000     0.387700000000     0.500000000000     0          
T        Si     0.196850000000     0.378150000000     0.885600000000     0          
T        Si     0.053250000000     0.250000000000     0.832300000000     0          
T        Si     0.128500000000     0.371500000000     0.548000000000     0          
T        Si     0.193150000000     0.306850000000     0.500000000000     0          
O        O      0.183000000000     0.250000000000     0.500000000000     0          
O        O      0.169250000000     0.169250000000     0.542400000000     0          
O        O      0.081900000000     0.202800000000     0.848200000000     0          
O        O      0.047150000000     0.250000000000     0.780400000000     0          
O        O      0.137550000000     0.250000000000     0.900800000000     0          
O        O      0.082900000000     0.149600000000     0.574000000000     0          
O        O      0.167900000000     0.167900000000     0.867500000000     0          
O        O      0.112300000000     0.112300000000     0.500000000000     0          
T        Si     0.121850000000     0.196850000000     0.885600000000     0          
T        Si     0.250000000000     0.053250000000     0.832300000000     0          
T        Si     0.128500000000     0.128500000000     0.548000000000     0          
T        Si     0.193150000000     0.193150000000     0.500000000000     0          
O        O      0.250000000000     0.183000000000     0.500000000000     0          
O        O      0.330750000000     0.169250000000     0.542400000000     0          
O        O      0.297200000000     0.081900000000     0.848200000000     0          
O        O      0.250000000000     0.047150000000     0.780400000000     0          
O        O      0.250000000000     0.137550000000     0.900800000000     0          
O        O      0.350400000000     0.082900000000     0.574000000000     0          
O        O      0.332100000000     0.167900000000     0.867500000000     0          
O        O      0.387700000000     0.112300000000     0.500000000000     0          
T        Si     0.303150000000     0.121850000000     0.885600000000     0          
T        Si     0.446750000000     0.250000000000     0.832300000000     0          
T        Si     0.371500000000     0.128500000000     0.548000000000     0          
T        Si     0.306850000000     0.193150000000     0.500000000000     0          
O        O      0.000000000000     0.250000000000     0.147000000000     0          
O        O      0.330750000000     0.169250000000     0.457600000000     0          
O        O      0.418100000000     0.202800000000     0.151800000000     0          
O        O      0.452850000000     0.250000000000     0.219600000000     0          
O        O      0.362450000000     0.250000000000     0.099200000000     0          
O        O      0.417100000000     0.149600000000     0.426000000000     0          
O        O      0.332100000000     0.167900000000     0.132500000000     0          
T        Si     0.378150000000     0.196850000000     0.114400000000     0          
T        Si     0.250000000000     0.053250000000     0.167700000000     0          
T        Si     0.371500000000     0.128500000000     0.452000000000     0          
O        O      0.250000000000     0.000000000000     0.147000000000     0          
O        O      0.330750000000     0.330750000000     0.457600000000     0          
O        O      0.297200000000     0.418100000000     0.151800000000     0          
O        O      0.250000000000     0.452850000000     0.219600000000     0          
O        O      0.250000000000     0.362450000000     0.099200000000     0          
O        O      0.350400000000     0.417100000000     0.426000000000     0          
O        O      0.332100000000     0.332100000000     0.132500000000     0          
T        Si     0.303150000000     0.378150000000     0.114400000000     0          
T        Si     0.446750000000     0.250000000000     0.167700000000     0          
T        Si     0.371500000000     0.371500000000     0.452000000000     0          
O        O      0.169250000000     0.330750000000     0.457600000000     0          
O        O      0.081900000000     0.297200000000     0.151800000000     0          
O        O      0.047150000000     0.250000000000     0.219600000000     0          
O        O      0.137550000000     0.250000000000     0.099200000000     0          
O        O      0.082900000000     0.350400000000     0.426000000000     0          
O        O      0.167900000000     0.332100000000     0.132500000000     0          
T        Si     0.121850000000     0.303150000000     0.114400000000     0          
T        Si     0.250000000000     0.446750000000     0.167700000000     0          
T        Si     0.128500000000     0.371500000000     0.452000000000     0          
O        O      0.169250000000     0.169250000000     0.457600000000     0          
O        O      0.202800000000     0.081900000000     0.151800000000     0          
O        O      0.250000000000     0.047150000000     0.219600000000     0          
O        O      0.250000000000     0.137550000000     0.099200000000     0          
O        O      0.149600000000     0.082900000000     0.426000000000     0          
O        O      0.167900000000     0.167900000000     0.132500000000     0          
T        Si     0.196850000000     0.121850000000     0.114400000000     0          
T        Si     0.053250000000     0.250000000000     0.167700000000     0          
T        Si     0.128500000000     0.128500000000     0.452000000000     0          
O        O      0.081900000000     0.202800000000     0.151800000000     0          
O        O      0.082900000000     0.149600000000     0.426000000000     0          
T        Si     0.121850000000     0.196850000000     0.114400000000     0          
O        O      0.297200000000     0.081900000000     0.151800000000     0          
O        O      0.350400000000     0.082900000000     0.426000000000     0          
T        Si     0.303150000000     0.121850000000     0.114400000000     0          
O        O      0.418100000000     0.297200000000     0.151800000000     0          
O        O      0.417100000000     0.350400000000     0.426000000000     0          
T        Si     0.378150000000     0.303150000000     0.114400000000     0          
O        O      0.202800000000     0.418100000000     0.151800000000     0          
O        O      0.149600000000     0.417100000000     0.426000000000     0          
T        Si     0.196850000000     0.378150000000     0.114400000000     0          
O        O      0.081900000000     0.297200000000     0.848200000000     0          
O        O      0.082900000000     0.350400000000     0.574000000000     0          
T        Si     0.121850000000     0.303150000000     0.885600000000     0          
O        O      0.202800000000     0.081900000000     0.848200000000     0          
O        O      0.149600000000     0.082900000000     0.574000000000     0          
T        Si     0.196850000000     0.121850000000     0.885600000000     0          
O        O      0.418100000000     0.202800000000     0.848200000000     0          
O        O      0.417100000000     0.149600000000     0.574000000000     0          
T        Si     0.378150000000     0.196850000000     0.885600000000     0          
O        O      0.297200000000     0.418100000000     0.848200000000     0          
O        O      0.350400000000     0.417100000000     0.574000000000     0          
T        Si     0.303150000000     0.378150000000     0.885600000000     0          
O        O      0.250000000000     0.500000000000     0.353000000000     0          
O        O      0.067000000000     0.500000000000     0.000000000000     0          
O        O      0.080750000000     0.580750000000     0.042400000000     0          
O        O      0.168100000000     0.547200000000     0.348200000000     0          
O        O      0.202850000000     0.500000000000     0.280400000000     0          
O        O      0.112450000000     0.500000000000     0.400800000000     0          
O        O      0.167100000000     0.600400000000     0.074000000000     0          
O        O      0.082100000000     0.582100000000     0.367500000000     0          
O        O      0.137700000000     0.637700000000     0.000000000000     0          
T        Si     0.128150000000     0.553150000000     0.385600000000     0          
T        Si     0.000000000000     0.696750000000     0.332300000000     0          
T        Si     0.121500000000     0.621500000000     0.048000000000     0          
T        Si     0.056850000000     0.556850000000     0.000000000000     0          
T        Si     0.000000000000     0.750000000000     0.250000000000     0          
O        O      0.000000000000     0.750000000000     0.353000000000     0          
O        O      0.000000000000     0.567000000000     0.000000000000     0          
O        O      0.419250000000     0.580750000000     0.042400000000     0          
O        O      0.452800000000     0.668100000000     0.348200000000     0          
O        O      0.000000000000     0.702850000000     0.280400000000     0          
O        O      0.000000000000     0.612450000000     0.400800000000     0          
O        O      0.399600000000     0.667100000000     0.074000000000     0          
O        O      0.417900000000     0.582100000000     0.367500000000     0          
O        O      0.362300000000     0.637700000000     0.000000000000     0          
T        Si     0.446850000000     0.628150000000     0.385600000000     0          
T        Si     0.303250000000     0.500000000000     0.332300000000     0          
T        Si     0.378500000000     0.621500000000     0.048000000000     0          
T        Si     0.443150000000     0.556850000000     0.000000000000     0          
T        Si     0.250000000000     0.500000000000     0.250000000000     0          
O        O      0.433000000000     0.500000000000     0.000000000000     0          
O        O      0.419250000000     0.919250000000     0.042400000000     0          
O        O      0.331900000000     0.952800000000     0.348200000000     0          
O        O      0.297150000000     0.500000000000     0.280400000000     0          
O        O      0.387550000000     0.500000000000     0.400800000000     0          
O        O      0.332900000000     0.899600000000     0.074000000000     0          
O        O      0.417900000000     0.917900000000     0.367500000000     0          
O        O      0.362300000000     0.862300000000     0.000000000000     0          
T        Si     0.371850000000     0.946850000000     0.385600000000     0          
T        Si     0.000000000000     0.803250000000     0.332300000000     0          
T        Si     0.378500000000     0.878500000000     0.048000000000     0          
T        Si     0.443150000000     0.943150000000     0.000000000000     0          
O        O      0.000000000000     0.933000000000     0.000000000000     0          
O        O      0.080750000000     0.919250000000     0.042400000000     0          
O        O      0.047200000000     0.831900000000     0.348200000000     0          
O        O      0.000000000000     0.797150000000     0.280400000000     0          
O        O      0.000000000000     0.887550000000     0.400800000000     0          
O        O      0.100400000000     0.832900000000     0.074000000000     0          
O        O      0.082100000000     0.917900000000     0.367500000000     0          
O        O      0.137700000000     0.862300000000     0.000000000000     0          
T        Si     0.053150000000     0.871850000000     0.385600000000     0          
T        Si     0.196750000000     0.500000000000     0.332300000000     0          
T        Si     0.121500000000     0.878500000000     0.048000000000     0          
T        Si     0.056850000000     0.943150000000     0.000000000000     0          
O        O      0.250000000000     0.500000000000     0.647000000000     0          
O        O      0.080750000000     0.919250000000     0.957600000000     0          
O        O      0.168100000000     0.952800000000     0.651800000000     0          
O        O      0.202850000000     0.500000000000     0.719600000000     0          
O        O      0.112450000000     0.500000000000     0.599200000000     0          
O        O      0.167100000000     0.899600000000     0.926000000000     0          
O        O      0.082100000000     0.917900000000     0.632500000000     0          
T        Si     0.128150000000     0.946850000000     0.614400000000     0          
T        Si     0.000000000000     0.803250000000     0.667700000000     0          
T        Si     0.121500000000     0.878500000000     0.952000000000     0          
T        Si     0.000000000000     0.750000000000     0.750000000000     0          
O        O      0.000000000000     0.750000000000     0.647000000000     0          
O        O      0.080750000000     0.580750000000     0.957600000000     0          
O        O      0.047200000000     0.668100000000     0.651800000000     0          
O        O      0.000000000000     0.702850000000     0.719600000000     0          
O        O      0.000000000000     0.612450000000     0.599200000000     0          
O        O      0.100400000000     0.667100000000     0.926000000000     0          
O        O      0.082100000000     0.582100000000     0.632500000000     0          
T        Si     0.053150000000     0.628150000000     0.614400000000     0          
T        Si     0.196750000000     0.500000000000     0.667700000000     0          
T        Si     0.121500000000     0.621500000000     0.952000000000     0          
T        Si     0.250000000000     0.500000000000     0.750000000000     0          
O        O      0.419250000000     0.580750000000     0.957600000000     0          
O        O      0.331900000000     0.547200000000     0.651800000000     0          
O        O      0.297150000000     0.500000000000     0.719600000000     0          
O        O      0.387550000000     0.500000000000     0.599200000000     0          
O        O      0.332900000000     0.600400000000     0.926000000000     0          
O        O      0.417900000000     0.582100000000     0.632500000000     0          
T        Si     0.371850000000     0.553150000000     0.614400000000     0          
T        Si     0.000000000000     0.696750000000     0.667700000000     0          
T        Si     0.378500000000     0.621500000000     0.952000000000     0          
O        O      0.419250000000     0.919250000000     0.957600000000     0          
O        O      0.452800000000     0.831900000000     0.651800000000     0          
O        O      0.000000000000     0.797150000000     0.719600000000     0          
O        O      0.000000000000     0.887550000000     0.599200000000     0          
O        O      0.399600000000     0.832900000000     0.926000000000     0          
O        O      0.417900000000     0.917900000000     0.632500000000     0          
T        Si     0.446850000000     0.871850000000     0.614400000000     0          
T        Si     0.303250000000     0.500000000000     0.667700000000     0          
T        Si     0.378500000000     0.878500000000     0.952000000000     0          
O        O      0.331900000000     0.952800000000     0.651800000000     0          
O        O      0.332900000000     0.899600000000     0.926000000000     0          
T        Si     0.371850000000     0.946850000000     0.614400000000     0          
O        O      0.047200000000     0.831900000000     0.651800000000     0          
O        O      0.100400000000     0.832900000000     0.926000000000     0          
T        Si     0.053150000000     0.871850000000     0.614400000000     0          
O        O      0.168100000000     0.547200000000     0.651800000000     0          
O        O      0.167100000000     0.600400000000     0.926000000000     0          
T        Si     0.128150000000     0.553150000000     0.614400000000     0          
O        O      0.452800000000     0.668100000000     0.651800000000     0          
O        O      0.399600000000     0.667100000000     0.926000000000     0          
T        Si     0.446850000000     0.628150000000     0.614400000000     0          
O        O      0.331900000000     0.547200000000     0.348200000000     0          
O        O      0.332900000000     0.600400000000     0.074000000000     0          
T        Si     0.371850000000     0.553150000000     0.385600000000     0          
O        O      0.452800000000     0.831900000000     0.348200000000     0          
O        O      0.399600000000     0.832900000000     0.074000000000     0          
T        Si     0.446850000000     0.871850000000     0.385600000000     0          
O        O      0.168100000000     0.952800000000     0.348200000000     0          
O        O      0.167100000000     0.899600000000     0.074000000000     0          
T        Si     0.128150000000     0.946850000000     0.385600000000     0          
O        O      0.047200000000     0.668100000000     0.348200000000     0          
O        O      0.100400000000     0.667100000000     0.074000000000     0          
T        Si     0.053150000000     0.628150000000     0.385600000000     0          
O        O      0.000000000000     0.750000000000     0.853000000000     0          
O        O      0.317000000000     0.750000000000     0.500000000000     0          
O        O      0.330750000000     0.830750000000     0.542400000000     0          
O        O      0.418100000000     0.797200000000     0.848200000000     0          
O        O      0.452850000000     0.750000000000     0.780400000000     0          
O        O      0.362450000000     0.750000000000     0.900800000000     0          
O        O      0.417100000000     0.850400000000     0.574000000000     0          
O        O      0.332100000000     0.832100000000     0.867500000000     0          
O        O      0.387700000000     0.887700000000     0.500000000000     0          
T        Si     0.378150000000     0.803150000000     0.885600000000     0          
T        Si     0.250000000000     0.946750000000     0.832300000000     0          
T        Si     0.371500000000     0.871500000000     0.548000000000     0          
T        Si     0.306850000000     0.806850000000     0.500000000000     0          
O        O      0.250000000000     0.500000000000     0.853000000000     0          
O        O      0.250000000000     0.817000000000     0.500000000000     0          
O        O      0.169250000000     0.830750000000     0.542400000000     0          
O        O      0.202800000000     0.918100000000     0.848200000000     0          
O        O      0.250000000000     0.952850000000     0.780400000000     0          
O        O      0.250000000000     0.862450000000     0.900800000000     0          
O        O      0.149600000000     0.917100000000     0.574000000000     0          
O        O      0.167900000000     0.832100000000     0.867500000000     0          
O        O      0.112300000000     0.887700000000     0.500000000000     0          
T        Si     0.196850000000     0.878150000000     0.885600000000     0          
T        Si     0.053250000000     0.750000000000     0.832300000000     0          
T        Si     0.128500000000     0.871500000000     0.548000000000     0          
T        Si     0.193150000000     0.806850000000     0.500000000000     0          
O        O      0.183000000000     0.750000000000     0.500000000000     0          
O        O      0.169250000000     0.669250000000     0.542400000000     0          
O        O      0.081900000000     0.702800000000     0.848200000000     0          
O        O      0.047150000000     0.750000000000     0.780400000000     0          
O        O      0.137550000000     0.750000000000     0.900800000000     0          
O        O      0.082900000000     0.649600000000     0.574000000000     0          
O        O      0.167900000000     0.667900000000     0.867500000000     0          
O        O      0.112300000000     0.612300000000     0.500000000000     0          
T        Si     0.121850000000     0.696850000000     0.885600000000     0          
T        Si     0.250000000000     0.553250000000     0.832300000000     0          
T        Si     0.128500000000     0.628500000000     0.548000000000     0          
T        Si     0.193150000000     0.693150000000     0.500000000000     0          
O        O      0.250000000000     0.683000000000     0.500000000000     0          
O        O      0.330750000000     0.669250000000     0.542400000000     0          
O        O      0.297200000000     0.581900000000     0.848200000000     0          
O        O      0.250000000000     0.547150000000     0.780400000000     0          
O        O      0.250000000000     0.637550000000     0.900800000000     0          
O        O      0.350400000000     0.582900000000     0.574000000000     0          
O        O      0.332100000000     0.667900000000     0.867500000000     0          
O        O      0.387700000000     0.612300000000     0.500000000000     0          
T        Si     0.303150000000     0.621850000000     0.885600000000     0          
T        Si     0.446750000000     0.750000000000     0.832300000000     0          
T        Si     0.371500000000     0.628500000000     0.548000000000     0          
T        Si     0.306850000000     0.693150000000     0.500000000000     0          
O        O      0.000000000000     0.750000000000     0.147000000000     0          
O        O      0.330750000000     0.669250000000     0.457600000000     0          
O        O      0.418100000000     0.702800000000     0.151800000000     0          
O        O      0.452850000000     0.750000000000     0.219600000000     0          
O        O      0.362450000000     0.750000000000     0.099200000000     0          
O        O      0.417100000000     0.649600000000     0.426000000000     0          
O        O      0.332100000000     0.667900000000     0.132500000000     0          
T        Si     0.378150000000     0.696850000000     0.114400000000     0          
T        Si     0.250000000000     0.553250000000     0.167700000000     0          
T        Si     0.371500000000     0.628500000000     0.452000000000     0          
O        O      0.250000000000     0.500000000000     0.147000000000     0          
O        O      0.330750000000     0.830750000000     0.457600000000     0          
O        O      0.297200000000     0.918100000000     0.151800000000     0          
O        O      0.250000000000     0.952850000000     0.219600000000     0          
O        O      0.250000000000     0.862450000000     0.099200000000     0          
O        O      0.350400000000     0.917100000000     0.426000000000     0          
O        O      0.332100000000     0.832100000000     0.132500000000     0          
T        Si     0.303150000000     0.878150000000     0.114400000000     0          
T        Si     0.446750000000     0.750000000000     0.167700000000     0          
T        Si     0.371500000000     0.871500000000     0.452000000000     0          
O        O      0.169250000000     0.830750000000     0.457600000000     0          
O        O      0.081900000000     0.797200000000     0.151800000000     0          
O        O      0.047150000000     0.750000000000     0.219600000000     0          
O        O      0.137550000000     0.750000000000     0.099200000000     0          
O        O      0.082900000000     0.850400000000     0.426000000000     0          
O        O      0.167900000000     0.832100000000     0.132500000000     0          
T        Si     0.121850000000     0.803150000000     0.114400000000     0          
T        Si     0.250000000000     0.946750000000     0.167700000000     0          
T        Si     0.128500000000     0.871500000000     0.452000000000     0          
O        O      0.169250000000     0.669250000000     0.457600000000     0          
O        O      0.202800000000     0.581900000000     0.151800000000     0          
O        O      0.250000000000     0.547150000000     0.219600000000     0          
O        O      0.250000000000     0.637550000000     0.099200000000     0          
O        O      0.149600000000     0.582900000000     0.426000000000     0          
O        O      0.167900000000     0.667900000000     0.132500000000     0          
T        Si     0.196850000000     0.621850000000     0.114400000000     0          
T        Si     0.053250000000     0.750000000000     0.167700000000     0          
T        Si     0.128500000000     0.628500000000     0.452000000000     0          
O        O      0.081900000000     0.702800000000     0.151800000000     0          
O        O      0.082900000000     0.649600000000     0.426000000000     0          
T        Si     0.121850000000     0.696850000000     0.114400000000     0          
O        O      0.297200000000     0.581900000000     0.151800000000     0          
O        O      0.350400000000     0.582900000000     0.426000000000     0          
T        Si     0.303150000000     0.621850000000     0.114400000000     0          
O        O      0.418100000000     0.797200000000     0.151800000000     0          
O        O      0.417100000000     0.850400000000     0.426000000000     0          
T        Si     0.378150000000     0.803150000000     0.114400000000     0          
O        O      0.202800000000     0.918100000000     0.151800000000     0          
O        O      0.149600000000     0.917100000000     0.426000000000     0          
T        Si     0.196850000000     0.878150000000     0.114400000000     0          
O        O      0.081900000000     0.797200000000     0.848200000000     0          
O        O      0.082900000000     0.850400000000     0.574000000000     0          
T        Si     0.121850000000     0.803150000000     0.885600000000     0          
O        O      0.202800000000     0.581900000000     0.848200000000     0          
O        O      0.149600000000     0.582900000000     0.574000000000     0          
T        Si     0.196850000000     0.621850000000     0.885600000000     0          
O        O      0.418100000000     0.702800000000     0.848200000000     0          
O        O      0.417100000000     0.649600000000     0.574000000000     0          
T        Si     0.378150000000     0.696850000000     0.885600000000     0          
O        O      0.297200000000     0.918100000000     0.848200000000     0          
O        O      0.350400000000     0.917100000000     0.574000000000     0          
T        Si     0.303150000000     0.878150000000     0.885600000000     0          
O        O      0.750000000000     0.000000000000     0.353000000000     0          
O        O      0.567000000000     0.000000000000     0.000000000000     0          
O        O      0.580750000000     0.080750000000     0.042400000000     0          
O        O      0.668100000000     0.047200000000     0.348200000000     0          
O        O      0.702850000000     0.000000000000     0.280400000000     0          
O        O      0.612450000000     0.000000000000     0.400800000000     0          
O        O      0.667100000000     0.100400000000     0.074000000000     0          
O        O      0.582100000000     0.082100000000     0.367500000000     0          
O        O      0.637700000000     0.137700000000     0.000000000000     0          
T        Si     0.628150000000     0.053150000000     0.385600000000     0          
T        Si     0.500000000000     0.196750000000     0.332300000000     0          
T        Si     0.621500000000     0.121500000000     0.048000000000     0          
T        Si     0.556850000000     0.056850000000     0.000000000000     0          
T        Si     0.500000000000     0.250000000000     0.250000000000     0          
O        O      0.500000000000     0.250000000000     0.353000000000     0          
O        O      0.500000000000     0.067000000000     0.000000000000     0          
O        O      0.919250000000     0.080750000000     0.042400000000     0          
O        O      0.952800000000     0.168100000000     0.348200000000     0          
O        O      0.500000000000     0.202850000000     0.280400000000     0          
O        O      0.500000000000     0.112450000000     0.400800000000     0          
O        O      0.899600000000     0.167100000000     0.074000000000     0          
O        O      0.917900000000     0.082100000000     0.367500000000     0          
O        O      0.862300000000     0.137700000000     0.000000000000     0          
T        Si     0.946850000000     0.128150000000     0.385600000000     0          
T        Si     0.803250000000     0.000000000000     0.332300000000     0          
T        Si     0.878500000000     0.121500000000     0.048000000000     0          
T        Si     0.943150000000     0.056850000000     0.000000000000     0          
T        Si     0.750000000000     0.000000000000     0.250000000000     0          
O        O      0.933000000000     0.000000000000     0.000000000000     0          
O        O      0.919250000000     0.419250000000     0.042400000000     0          
O        O      0.831900000000     0.452800000000     0.348200000000     0          
O        O      0.797150000000     0.000000000000     0.280400000000     0          
O        O      0.887550000000     0.000000000000     0.400800000000     0          
O        O      0.832900000000     0.399600000000     0.074000000000     0          
O        O      0.917900000000     0.417900000000     0.367500000000     0          
O        O      0.862300000000     0.362300000000     0.000000000000     0          
T        Si     0.871850000000     0.446850000000     0.385600000000     0          
T        Si     0.500000000000     0.303250000000     0.332300000000     0          
T        Si     0.878500000000     0.378500000000     0.048000000000     0          
T        Si     0.943150000000     0.443150000000     0.000000000000     0          
O        O      0.500000000000     0.433000000000     0.000000000000     0          
O        O      0.580750000000     0.419250000000     0.042400000000     0          
O        O      0.547200000000     0.331900000000     0.348200000000     0          
O        O      0.500000000000     0.297150000000     0.280400000000     0          
O        O      0.500000000000     0.387550000000     0.400800000000     0          
O        O      0.600400000000     0.332900000000     0.074000000000     0          
O        O      0.582100000000     0.417900000000     0.367500000000     0          
O        O      0.637700000000     0.362300000000     0.000000000000     0          
T        Si     0.553150000000     0.371850000000     0.385600000000     0          
T        Si     0.696750000000     0.000000000000     0.332300000000     0          
T        Si     0.621500000000     0.378500000000     0.048000000000     0          
T        Si     0.556850000000     0.443150000000     0.000000000000     0          
O        O      0.750000000000     0.000000000000     0.647000000000     0          
O        O      0.580750000000     0.419250000000     0.957600000000     0          
O        O      0.668100000000     0.452800000000     0.651800000000     0          
O        O      0.702850000000     0.000000000000     0.719600000000     0          
O        O      0.612450000000     0.000000000000     0.599200000000     0          
O        O      0.667100000000     0.399600000000     0.926000000000     0          
O        O      0.582100000000     0.417900000000     0.632500000000     0          
T        Si     0.628150000000     0.446850000000     0.614400000000     0          
T        Si     0.500000000000     0.303250000000     0.667700000000     0          
T        Si     0.621500000000     0.378500000000     0.952000000000     0          
T        Si     0.500000000000     0.250000000000     0.750000000000     0          
O        O      0.500000000000     0.250000000000     0.647000000000     0          
O        O      0.580750000000     0.080750000000     0.957600000000     0          
O        O      0.547200000000     0.168100000000     0.651800000000     0          
O        O      0.500000000000     0.202850000000     0.719600000000     0          
O        O      0.500000000000     0.112450000000     0.599200000000     0          
O        O      0.600400000000     0.167100000000     0.926000000000     0          
O        O      0.582100000000     0.082100000000     0.632500000000     0          
T        Si     0.553150000000     0.128150000000     0.614400000000     0          
T        Si     0.696750000000     0.000000000000     0.667700000000     0          
T        Si     0.621500000000     0.121500000000     0.952000000000     0          
T        Si     0.750000000000     0.000000000000     0.750000000000     0          
O        O      0.919250000000     0.080750000000     0.957600000000     0          
O        O      0.831900000000     0.047200000000     0.651800000000     0          
O        O      0.797150000000     0.000000000000     0.719600000000     0          
O        O      0.887550000000     0.000000000000     0.599200000000     0          
O        O      0.832900000000     0.100400000000     0.926000000000     0          
O        O      0.917900000000     0.082100000000     0.632500000000     0          
T        Si     0.871850000000     0.053150000000     0.614400000000     0          
T        Si     0.500000000000     0.196750000000     0.667700000000     0          
T        Si     0.878500000000     0.121500000000     0.952000000000     0          
O        O      0.919250000000     0.419250000000     0.957600000000     0          
O        O      0.952800000000     0.331900000000     0.651800000000     0          
O        O      0.500000000000     0.297150000000     0.719600000000     0          
O        O      0.500000000000     0.387550000000     0.599200000000     0          
O        O      0.899600000000     0.332900000000     0.926000000000     0          
O        O      0.917900000000     0.417900000000     0.632500000000     0          
T        Si     0.946850000000     0.371850000000     0.614400000000     0          
T        Si     0.803250000000     0.000000000000     0.667700000000     0          
T        Si     0.878500000000     0.378500000000     0.952000000000     0          
O        O      0.831900000000     0.452800000000     0.651800000000     0          
O        O      0.832900000000     0.399600000000     0.926000000000     0          
T        Si     0.871850000000     0.446850000000     0.614400000000     0          
O        O      0.547200000000     0.331900000000     0.651800000000     0          
O        O      0.600400000000     0.332900000000     0.926000000000     0          
T        Si     0.553150000000     0.371850000000     0.614400000000     0          
O        O      0.668100000000     0.047200000000     0.651800000000     0          
O        O      0.667100000000     0.100400000000     0.926000000000     0          
T        Si     0.628150000000     0.053150000000     0.614400000000     0          
O        O      0.952800000000     0.168100000000     0.651800000000     0          
O        O      0.899600000000     0.167100000000     0.926000000000     0          
T        Si     0.946850000000     0.128150000000     0.614400000000     0          
O        O      0.831900000000     0.047200000000     0.348200000000     0          
O        O      0.832900000000     0.100400000000     0.074000000000     0          
T        Si     0.871850000000     0.053150000000     0.385600000000     0          
O        O      0.952800000000     0.331900000000     0.348200000000     0          
O        O      0.899600000000     0.332900000000     0.074000000000     0          
T        Si     0.946850000000     0.371850000000     0.385600000000     0          
O        O      0.668100000000     0.452800000000     0.348200000000     0          
O        O      0.667100000000     0.399600000000     0.074000000000     0          
T        Si     0.628150000000     0.446850000000     0.385600000000     0          
O        O      0.547200000000     0.168100000000     0.348200000000     0          
O        O      0.600400000000     0.167100000000     0.074000000000     0          
T        Si     0.553150000000     0.128150000000     0.385600000000     0          
O        O      0.500000000000     0.250000000000     0.853000000000     0          
O        O      0.817000000000     0.250000000000     0.500000000000     0          
O        O      0.830750000000     0.330750000000     0.542400000000     0          
O        O      0.918100000000     0.297200000000     0.848200000000     0          
O        O      0.952850000000     0.250000000000     0.780400000000     0          
O        O      0.862450000000     0.250000000000     0.900800000000     0          
O        O      0.917100000000     0.350400000000     0.574000000000     0          
O        O      0.832100000000     0.332100000000     0.867500000000     0          
O        O      0.887700000000     0.387700000000     0.500000000000     0          
T        Si     0.878150000000     0.303150000000     0.885600000000     0          
T        Si     0.750000000000     0.446750000000     0.832300000000     0          
T        Si     0.871500000000     0.371500000000     0.548000000000     0          
T        Si     0.806850000000     0.306850000000     0.500000000000     0          
O        O      0.750000000000     0.000000000000     0.853000000000     0          
O        O      0.750000000000     0.317000000000     0.500000000000     0          
O        O      0.669250000000     0.330750000000     0.542400000000     0          
O        O      0.702800000000     0.418100000000     0.848200000000     0          
O        O      0.750000000000     0.452850000000     0.780400000000     0          
O        O      0.750000000000     0.362450000000     0.900800000000     0          
O        O      0.649600000000     0.417100000000     0.574000000000     0          
O        O      0.667900000000     0.332100000000     0.867500000000     0          
O        O      0.612300000000     0.387700000000     0.500000000000     0          
T        Si     0.696850000000     0.378150000000     0.885600000000     0          
T        Si     0.553250000000     0.250000000000     0.832300000000     0          
T        Si     0.628500000000     0.371500000000     0.548000000000     0          
T        Si     0.693150000000     0.306850000000     0.500000000000     0          
O        O      0.683000000000     0.250000000000     0.500000000000     0          
O        O      0.669250000000     0.169250000000     0.542400000000     0          
O        O      0.581900000000     0.202800000000     0.848200000000     0          
O        O      0.547150000000     0.250000000000     0.780400000000     0          
O        O      0.637550000000     0.250000000000     0.900800000000     0          
O        O      0.582900000000     0.149600000000     0.574000000000     0          
O        O      0.667900000000     0.167900000000     0.867500000000     0          
O        O      0.612300000000     0.112300000000     0.500000000000     0          
T        Si     0.621850000000     0.196850000000     0.885600000000     0          
T        Si     0.750000000000     0.053250000000     0.832300000000     0          
T        Si     0.628500000000     0.128500000000     0.548000000000     0          
T        Si     0.693150000000     0.193150000000     0.500000000000     0          
O        O      0.750000000000     0.183000000000     0.500000000000     0          
O        O      0.830750000000     0.169250000000     0.542400000000     0          
O        O      0.797200000000     0.081900000000     0.848200000000     0          
O        O      0.750000000000     0.047150000000     0.780400000000     0          
O        O      0.750000000000     0.137550000000     0.900800000000     0          
O        O      0.850400000000     0.082900000000     0.574000000000     0          
O        O      0.832100000000     0.167900000000     0.867500000000     0          
O        O      0.887700000000     0.112300000000     0.500000000000     0          
T        Si     0.803150000000     0.121850000000     0.885600000000     0          
T        Si     0.946750000000     0.250000000000     0.832300000000     0          
T        Si     0.871500000000     0.128500000000     0.548000000000     0          
T        Si     0.806850000000     0.193150000000     0.500000000000     0          
O        O      0.500000000000     0.250000000000     0.147000000000     0          
O        O      0.830750000000     0.169250000000     0.457600000000     0          
O        O      0.918100000000     0.202800000000     0.151800000000     0          
O        O      0.952850000000     0.250000000000     0.219600000000     0          
O        O      0.862450000000     0.250000000000     0.099200000000     0          
O        O      0.917100000000     0.149600000000     0.426000000000     0          
O        O      0.832100000000     0.167900000000     0.132500000000     0          
T        Si     0.878150000000     0.196850000000     0.114400000000     0          
T        Si     0.750000000000     0.053250000000     0.167700000000     0          
T        Si     0.871500000000     0.128500000000     0.452000000000     0          
O        O      0.750000000000     0.000000000000     0.147000000000     0          
O        O      0.830750000000     0.330750000000     0.457600000000     0          
O        O      0.797200000000     0.418100000000     0.151800000000     0          
O        O      0.750000000000     0.452850000000     0.219600000000     0          
O        O      0.750000000000     0.362450000000     0.099200000000     0          
O        O      0.850400000000     0.417100000000     0.426000000000     0          
O        O      0.832100000000     0.332100000000     0.132500000000     0          
T        Si     0.803150000000     0.378150000000     0.114400000000     0          
T        Si     0.946750000000     0.250000000000     0.167700000000     0          
T        Si     0.871500000000     0.371500000000     0.452000000000     0          
O        O      0.669250000000     0.330750000000     0.457600000000     0          
O        O      0.581900000000     0.297200000000     0.151800000000     0          
O        O      0.547150000000     0.250000000000     0.219600000000     0          
O        O      0.637550000000     0.250000000000     0.099200000000     0          
O        O      0.582900000000     0.350400000000     0.426000000000     0          
O        O      0.667900000000     0.332100000000     0.132500000000     0          
T        Si     0.621850000000     0.303150000000     0.114400000000     0          
T        Si     0.750000000000     0.446750000000     0.167700000000     0          
T        Si     0.628500000000     0.371500000000     0.452000000000     0          
O        O      0.669250000000     0.169250000000     0.457600000000     0          
O        O      0.702800000000     0.081900000000     0.151800000000     0          
O        O      0.750000000000     0.047150000000     0.219600000000     0          
O        O      0.750000000000     0.137550000000     0.099200000000     0          
O        O      0.649600000000     0.082900000000     0.426000000000     0          
O        O      0.667900000000     0.167900000000     0.132500000000     0          
T        Si     0.696850000000     0.121850000000     0.114400000000     0          
T        Si     0.553250000000     0.250000000000     0.167700000000     0          
T        Si     0.628500000000     0.128500000000     0.452000000000     0          
O        O      0.581900000000     0.202800000000     0.151800000000     0          
O        O      0.582900000000     0.149600000000     0.426000000000     0          
T        Si     0.621850000000     0.196850000000     0.114400000000     0          
O        O      0.797200000000     0.081900000000     0.151800000000     0          
O        O      0.850400000000     0.082900000000     0.426000000000     0          
T        Si     0.803150000000     0.121850000000     0.114400000000     0          
O        O      0.918100000000     0.297200000000     0.151800000000     0          
O        O      0.917100000000     0.350400000000     0.426000000000     0          
T        Si     0.878150000000     0.303150000000     0.114400000000     0          
O        O      0.702800000000     0.418100000000     0.151800000000     0          
O        O      0.649600000000     0.417100000000     0.426000000000     0          
T        Si     0.696850000000     0.378150000000     0.114400000000     0          
O        O      0.581900000000     0.297200000000     0.848200000000     0          
O        O      0.582900000000     0.350400000000     0.574000000000     0          
T        Si     0.621850000000     0.303150000000     0.885600000000     0          
O        O      0.702800000000     0.081900000000     0.848200000000     0          
O        O      0.649600000000     0.082900000000     0.574000000000     0          
T        Si     0.696850000000     0.121850000000     0.885600000000     0          
O        O      0.918100000000     0.202800000000     0.848200000000     0          
O        O      0.917100000000     0.149600000000     0.574000000000     0          
T        Si     0.878150000000     0.196850000000     0.885600000000     0          
O        O      0.797200000000     0.418100000000     0.848200000000     0          
O        O      0.850400000000     0.417100000000     0.574000000000     0          
T        Si     0.803150000000     0.378150000000     0.885600000000     0          
O        O      0.750000000000     0.500000000000     0.353000000000     0          
O        O      0.567000000000     0.500000000000     0.000000000000     0          
O        O      0.580750000000     0.580750000000     0.042400000000     0          
O        O      0.668100000000     0.547200000000     0.348200000000     0          
O        O      0.702850000000     0.500000000000     0.280400000000     0          
O        O      0.612450000000     0.500000000000     0.400800000000     0          
O        O      0.667100000000     0.600400000000     0.074000000000     0          
O        O      0.582100000000     0.582100000000     0.367500000000     0          
O        O      0.637700000000     0.637700000000     0.000000000000     0          
T        Si     0.628150000000     0.553150000000     0.385600000000     0          
T        Si     0.500000000000     0.696750000000     0.332300000000     0          
T        Si     0.621500000000     0.621500000000     0.048000000000     0          
T        Si     0.556850000000     0.556850000000     0.000000000000     0          
T        Si     0.500000000000     0.750000000000     0.250000000000     0          
O        O      0.500000000000     0.750000000000     0.353000000000     0          
O        O      0.500000000000     0.567000000000     0.000000000000     0          
O        O      0.919250000000     0.580750000000     0.042400000000     0          
O        O      0.952800000000     0.668100000000     0.348200000000     0          
O        O      0.500000000000     0.702850000000     0.280400000000     0          
O        O      0.500000000000     0.612450000000     0.400800000000     0          
O        O      0.899600000000     0.667100000000     0.074000000000     0          
O        O      0.917900000000     0.582100000000     0.367500000000     0          
O        O      0.862300000000     0.637700000000     0.000000000000     0          
T        Si     0.946850000000     0.628150000000     0.385600000000     0          
T        Si     0.803250000000     0.500000000000     0.332300000000     0          
T        Si     0.878500000000     0.621500000000     0.048000000000     0          
T        Si     0.943150000000     0.556850000000     0.000000000000     0          
T        Si     0.750000000000     0.500000000000     0.250000000000     0          
O        O      0.933000000000     0.500000000000     0.000000000000     0          
O        O      0.919250000000     0.919250000000     0.042400000000     0          
O        O      0.831900000000     0.952800000000     0.348200000000     0          
O        O      0.797150000000     0.500000000000     0.280400000000     0          
O        O      0.887550000000     0.500000000000     0.400800000000     0          
O        O      0.832900000000     0.899600000000     0.074000000000     0          
O        O      0.917900000000     0.917900000000     0.367500000000     0          
O        O      0.862300000000     0.862300000000     0.000000000000     0          
T        Si     0.871850000000     0.946850000000     0.385600000000     0          
T        Si     0.500000000000     0.803250000000     0.332300000000     0          
T        Si     0.878500000000     0.878500000000     0.048000000000     0          
T        Si     0.943150000000     0.943150000000     0.000000000000     0          
O        O      0.500000000000     0.933000000000     0.000000000000     0          
O        O      0.580750000000     0.919250000000     0.042400000000     0          
O        O      0.547200000000     0.831900000000     0.348200000000     0          
O        O      0.500000000000     0.797150000000     0.280400000000     0          
O        O      0.500000000000     0.887550000000     0.400800000000     0          
O        O      0.600400000000     0.832900000000     0.074000000000     0          
O        O      0.582100000000     0.917900000000     0.367500000000     0          
O        O      0.637700000000     0.862300000000     0.000000000000     0          
T        Si     0.553150000000     0.871850000000     0.385600000000     0          
T        Si     0.696750000000     0.500000000000     0.332300000000     0          
T        Si     0.621500000000     0.878500000000     0.048000000000     0          
T        Si     0.556850000000     0.943150000000     0.000000000000     0          
O        O      0.750000000000     0.500000000000     0.647000000000     0          
O        O      0.580750000000     0.919250000000     0.957600000000     0          
O        O      0.668100000000     0.952800000000     0.651800000000     0          
O        O      0.702850000000     0.500000000000     0.719600000000     0          
O        O      0.612450000000     0.500000000000     0.599200000000     0          
O        O      0.667100000000     0.899600000000     0.926000000000     0          
O        O      0.582100000000     0.917900000000     0.632500000000     0          
T        Si     0.628150000000     0.946850000000     0.614400000000     0          
T        Si     0.500000000000     0.803250000000     0.667700000000     0          
T        Si     0.621500000000     0.878500000000     0.952000000000     0          
T        Si     0.500000000000     0.750000000000     0.750000000000     0          
O        O      0.500000000000     0.750000000000     0.647000000000     0          
O        O      0.580750000000     0.580750000000     0.957600000000     0          
O        O      0.547200000000     0.668100000000     0.651800000000     0          
O        O      0.500000000000     0.702850000000     0.719600000000     0          
O        O      0.500000000000     0.612450000000     0.599200000000     0          
O        O      0.600400000000     0.667100000000     0.926000000000     0          
O        O      0.582100000000     0.582100000000     0.632500000000     0          
T        Si     0.553150000000     0.628150000000     0.614400000000     0          
T        Si     0.696750000000     0.500000000000     0.667700000000     0          
T        Si     0.621500000000     0.621500000000     0.952000000000     0          
T        Si     0.750000000000     0.500000000000     0.750000000000     0          
O        O      0.919250000000     0.580750000000     0.957600000000     0          
O        O      0.831900000000     0.547200000000     0.651800000000     0          
O        O      0.797150000000     0.500000000000     0.719600000000     0          
O        O      0.887550000000     0.500000000000     0.599200000000     0          
O        O      0.832900000000     0.600400000000     0.926000000000     0          
O        O      0.917900000000     0.582100000000     0.632500000000     0          
T        Si     0.871850000000     0.553150000000     0.614400000000     0          
T        Si     0.500000000000     0.696750000000     0.667700000000     0          
T        Si     0.878500000000     0.621500000000     0.952000000000     0          
O        O      0.919250000000     0.919250000000     0.957600000000     0          
O        O      0.952800000000     0.831900000000     0.651800000000     0          
O        O      0.500000000000     0.797150000000     0.719600000000     0          
O        O      0.500000000000     0.887550000000     0.599200000000     0          
O        O      0.899600000000     0.832900000000     0.926000000000     0          
O        O      0.917900000000     0.917900000000     0.632500000000     0          
T        Si     0.946850000000     0.871850000000     0.614400000000     0          
T        Si     0.803250000000     0.500000000000     0.667700000000     0          
T        Si     0.878500000000     0.878500000000     0.952000000000     0          
O        O      0.831900000000     0.952800000000     0.651800000000     0          
O        O      0.832900000000     0.899600000000     0.926000000000     0          
T        Si     0.871850000000     0.946850000000     0.614400000000     0          
O        O      0.547200000000     0.831900000000     0.651800000000     0          
O        O      0.600400000000     0.832900000000     0.926000000000     0          
T        Si     0.553150000000     0.871850000000     0.614400000000     0          
O        O      0.668100000000     0.547200000000     0.651800000000     0          
O        O      0.667100000000     0.600400000000     0.926000000000     0          
T        Si     0.628150000000     0.553150000000     0.614400000000     0          
O        O      0.952800000000     0.668100000000     0.651800000000     0          
O        O      0.899600000000     0.667100000000     0.926000000000     0          
T        Si     0.946850000000     0.628150000000     0.614400000000     0          
O        O      0.831900000000     0.547200000000     0.348200000000     0          
O        O      0.832900000000     0.600400000000     0.074000000000     0          
T        Si     0.871850000000     0.553150000000     0.385600000000     0          
O        O      0.952800000000     0.831900000000     0.348200000000     0          
O        O      0.899600000000     0.832900000000     0.074000000000     0          
T        Si     0.946850000000     0.871850000000     0.385600000000     0          
O        O      0.668100000000     0.952800000000     0.348200000000     0          
O        O      0.667100000000     0.899600000000     0.074000000000     0          
T        Si     0.628150000000     0.946850000000     0.385600000000     0          
O        O      0.547200000000     0.668100000000     0.348200000000     0          
O        O      0.600400000000     0.667100000000     0.074000000000     0          
T        Si     0.553150000000     0.628150000000     0.385600000000     0          
O        O      0.500000000000     0.750000000000     0.853000000000     0          
O        O      0.817000000000     0.750000000000     0.500000000000     0          
O        O      0.830750000000     0.830750000000     0.542400000000     0          
O        O      0.918100000000     0.797200000000     0.848200000000     0          
O        O      0.952850000000     0.750000000000     0.780400000000     0          
O        O      0.862450000000     0.750000000000     0.900800000000     0          
O        O      0.917100000000     0.850400000000     0.574000000000     0          
O        O      0.832100000000     0.832100000000     0.867500000000     0          
O        O      0.887700000000     0.887700000000     0.500000000000     0          
T        Si     0.878150000000     0.803150000000     0.885600000000     0          
T        Si     0.750000000000     0.946750000000     0.832300000000     0          
T        Si     0.871500000000     0.871500000000     0.548000000000     0          
T        Si     0.806850000000     0.806850000000     0.500000000000     0          
O        O      0.750000000000     0.500000000000     0.853000000000     0          
O        O      0.750000000000     0.817000000000     0.500000000000     0          
O        O      0.669250000000     0.830750000000     0.542400000000     0          
O        O      0.702800000000     0.918100000000     0.848200000000     0          
O        O      0.750000000000     0.952850000000     0.780400000000     0          
O        O      0.750000000000     0.862450000000     0.900800000000     0          
O        O      0.649600000000     0.917100000000     0.574000000000     0          
O        O      0.667900000000     0.832100000000     0.867500000000     0          
O        O      0.612300000000     0.887700000000     0.500000000000     0          
T        Si     0.696850000000     0.878150000000     0.885600000000     0          
T        Si     0.553250000000     0.750000000000     0.832300000000     0          
T        Si     0.628500000000     0.871500000000     0.548000000000     0          
T        Si     0.693150000000     0.806850000000     0.500000000000     0          
O        O      0.683000000000     0.750000000000     0.500000000000     0          
O        O      0.669250000000     0.669250000000     0.542400000000     0          
O        O      0.581900000000     0.702800000000     0.848200000000     0          
O        O      0.547150000000     0.750000000000     0.780400000000     0          
O        O      0.637550000000     0.750000000000     0.900800000000     0          
O        O      0.582900000000     0.649600000000     0.574000000000     0          
O        O      0.667900000000     0.667900000000     0.867500000000     0          
O        O      0.612300000000     0.612300000000     0.500000000000     0          
T        Si     0.621850000000     0.696850000000     0.885600000000     0          
T        Si     0.750000000000     0.553250000000     0.832300000000     0          
T        Si     0.628500000000     0.628500000000     0.548000000000     0          
T        Si     0.693150000000     0.693150000000     0.500000000000     0          
O        O      0.750000000000     0.683000000000     0.500000000000     0          
O        O      0.830750000000     0.669250000000     0.542400000000     0          
O        O      0.797200000000     0.581900000000     0.848200000000     0          
O        O      0.750000000000     0.547150000000     0.780400000000     0          
O        O      0.750000000000     0.637550000000     0.900800000000     0          
O        O      0.850400000000     0.582900000000     0.574000000000     0          
O        O      0.832100000000     0.667900000000     0.867500000000     0          
O        O      0.887700000000     0.612300000000     0.500000000000     0          
T        Si     0.803150000000     0.621850000000     0.885600000000     0          
T        Si     0.946750000000     0.750000000000     0.832300000000     0          
T        Si     0.871500000000     0.628500000000     0.548000000000     0          
T        Si     0.806850000000     0.693150000000     0.500000000000     0          
O        O      0.500000000000     0.750000000000     0.147000000000     0          
O        O      0.830750000000     0.669250000000     0.457600000000     0          
O        O      0.918100000000     0.702800000000     0.151800000000     0          
O        O      0.952850000000     0.750000000000     0.219600000000     0          
O        O      0.862450000000     0.750000000000     0.099200000000     0          
O        O      0.917100000000     0.649600000000     0.426000000000     0          
O        O      0.832100000000     0.667900000000     0.132500000000     0          
T        Si     0.878150000000     0.696850000000     0.114400000000     0          
T        Si     0.750000000000     0.553250000000     0.167700000000     0          
T        Si     0.871500000000     0.628500000000     0.452000000000     0          
O        O      0.750000000000     0.500000000000     0.147000000000     0          
O        O      0.830750000000     0.830750000000     0.457600000000     0          
O        O      0.797200000000     0.918100000000     0.151800000000     0          
O        O      0.750000000000     0.952850000000     0.219600000000     0          
O        O      0.750000000000     0.862450000000     0.099200000000     0          
O        O      0.850400000000     0.917100000000     0.426000000000     0          
O        O      0.832100000000     0.832100000000     0.132500000000     0          
T        Si     0.803150000000     0.878150000000     0.114400000000     0          
T        Si     0.946750000000     0.750000000000     0.167700000000     0          
T        Si     0.871500000000     0.871500000000     0.452000000000     0          
O        O      0.669250000000     0.830750000000     0.457600000000     0          
O        O      0.581900000000     0.797200000000     0.151800000000     0          
O        O      0.547150000000     0.750000000000     0.219600000000     0          
O        O      0.637550000000     0.750000000000     0.099200000000     0          
O        O      0.582900000000     0.850400000000     0.426000000000     0          
O        O      0.667900000000     0.832100000000     0.132500000000     0          
T        Si     0.621850000000     0.803150000000     0.114400000000     0          
T        Si     0.750000000000     0.946750000000     0.167700000000     0          
T        Si     0.628500000000     0.871500000000     0.452000000000     0          
O        O      0.669250000000     0.669250000000     0.457600000000     0          
O        O      0.702800000000     0.581900000000     0.151800000000     0          
O        O      0.750000000000     0.547150000000     0.219600000000     0          
O        O      0.750000000000     0.637550000000     0.099200000000     0          
O        O      0.649600000000     0.582900000000     0.426000000000     0          
O        O      0.667900000000     0.667900000000     0.132500000000     0          
T        Si     0.696850000000     0.621850000000     0.114400000000     0          
T        Si     0.553250000000     0.750000000000     0.167700000000     0          
T        Si     0.628500000000     0.628500000000     0.452000000000     0          
O        O      0.581900000000     0.702800000000     0.151800000000     0          
O        O      0.582900000000     0.649600000000     0.426000000000     0          
T        Si     0.621850000000     0.696850000000     0.114400000000     0          
O        O      0.797200000000     0.581900000000     0.151800000000     0          
O        O      0.850400000000     0.582900000000     0.426000000000     0          
T        Si     0.803150000000     0.621850000000     0.114400000000     0          
O        O      0.918100000000     0.797200000000     0.151800000000     0          
O        O      0.917100000000     0.850400000000     0.426000000000     0          
T        Si     0.878150000000     0.803150000000     0.114400000000     0          
O        O      0.702800000000     0.918100000000     0.151800000000     0          
O        O      0.649600000000     0.917100000000     0.426000000000     0          
T        Si     0.696850000000     0.878150000000     0.114400000000     0          
O        O      0.581900000000     0.797200000000     0.848200000000     0          
O        O      0.582900000000     0.850400000000     0.574000000000     0          
T        Si     0.621850000000     0.803150000000     0.885600000000     0          
O        O      0.702800000000     0.581900000000     0.848200000000     0          
O        O      0.649600000000     0.582900000000     0.574000000000     0          
T        Si     0.696850000000     0.621850000000     0.885600000000     0          
O        O      0.918100000000     0.702800000000     0.848200000000     0          
O        O      0.917100000000     0.649600000000     0.574000000000     0          
T        Si     0.878150000000     0.696850000000     0.885600000000     0          
O        O      0.797200000000     0.918100000000     0.848200000000     0          
O        O      0.850400000000     0.917100000000     0.574000000000     0          
T        Si     0.803150000000     0.878150000000     0.885600000000     0          


