data_zeolite

_audit_creation_method RASPA-1.0
_audit_creation_date 2021-6-7
_audit_author_name ''

_cell_length_a    35.409
_cell_length_b    30.834
_cell_length_c    29.967
_cell_angle_alpha 90
_cell_angle_beta  90
_cell_angle_gamma 90
_cell_volume      32718

_symmetry_cell_setting          orthorhombic
_symmetry_space_group_name_Hall 'P 1'
_symmetry_space_group_name_H-M  'P 1'
_symmetry_Int_Tables_number     1

_symmetry_equiv_pos_as_xyz 'x,y,z'

loop_
_atom_site_label
_atom_site_type_symbol
_atom_site_fract_x
_atom_site_fract_y
_atom_site_fract_z
_atom_site_charge
O        O      0.140333333333     0.030166666667     0.052366666667     0          
O        O      0.080833333333     0.027100000000     0.000000000000     0          
O        O      0.076433333333     0.000000000000     0.083333333333     0          
O        O      0.083333333333     0.083333333333     0.066066666667     0          
T        Si     0.095066666667     0.035300000000     0.050300000000     0          
T        Si     0.000000000000     0.166666666667     0.083333333333     0          
O        O      0.193000000000     0.303166666667     0.052366666667     0          
O        O      0.252500000000     0.306233333333     0.000000000000     0          
O        O      0.256900000000     0.000000000000     0.083333333333     0          
O        O      0.250000000000     0.250000000000     0.066066666667     0          
T        Si     0.238266666667     0.298033333333     0.050300000000     0          
O        O      0.140333333333     0.303166666667     0.114300000000     0          
O        O      0.080833333333     0.306233333333     0.166666666667     0          
O        O      0.083333333333     0.250000000000     0.100600000000     0          
T        Si     0.095066666667     0.298033333333     0.116366666667     0          
O        O      0.193000000000     0.030166666667     0.114300000000     0          
O        O      0.252500000000     0.027100000000     0.166666666667     0          
O        O      0.250000000000     0.083333333333     0.100600000000     0          
T        Si     0.238266666667     0.035300000000     0.116366666667     0          
O        O      0.193000000000     0.303166666667     0.280966666667     0          
O        O      0.256900000000     0.000000000000     0.250000000000     0          
O        O      0.250000000000     0.250000000000     0.267266666667     0          
T        Si     0.238266666667     0.298033333333     0.283033333333     0          
T        Si     0.000000000000     0.166666666667     0.250000000000     0          
O        O      0.140333333333     0.030166666667     0.280966666667     0          
O        O      0.076433333333     0.000000000000     0.250000000000     0          
O        O      0.083333333333     0.083333333333     0.267266666667     0          
T        Si     0.095066666667     0.035300000000     0.283033333333     0          
O        O      0.193000000000     0.030166666667     0.219033333333     0          
O        O      0.250000000000     0.083333333333     0.232733333333     0          
T        Si     0.238266666667     0.035300000000     0.216966666667     0          
O        O      0.140333333333     0.303166666667     0.219033333333     0          
O        O      0.083333333333     0.250000000000     0.232733333333     0          
T        Si     0.095066666667     0.298033333333     0.216966666667     0          
O        O      0.307000000000     0.196833333333     0.052366666667     0          
O        O      0.247500000000     0.193766666667     0.000000000000     0          
O        O      0.243100000000     0.166666666667     0.083333333333     0          
T        Si     0.261733333333     0.201966666667     0.050300000000     0          
T        Si     0.166666666667     0.000000000000     0.083333333333     0          
O        O      0.026333333333     0.136500000000     0.052366666667     0          
O        O      0.085833333333     0.139566666667     0.000000000000     0          
O        O      0.090233333333     0.166666666667     0.083333333333     0          
T        Si     0.071600000000     0.131366666667     0.050300000000     0          
O        O      0.307000000000     0.136500000000     0.114300000000     0          
O        O      0.247500000000     0.139566666667     0.166666666667     0          
T        Si     0.261733333333     0.131366666667     0.116366666667     0          
O        O      0.026333333333     0.196833333333     0.114300000000     0          
O        O      0.085833333333     0.193766666667     0.166666666667     0          
T        Si     0.071600000000     0.201966666667     0.116366666667     0          
O        O      0.026333333333     0.136500000000     0.280966666667     0          
O        O      0.090233333333     0.166666666667     0.250000000000     0          
T        Si     0.071600000000     0.131366666667     0.283033333333     0          
T        Si     0.166666666667     0.000000000000     0.250000000000     0          
O        O      0.307000000000     0.196833333333     0.280966666667     0          
O        O      0.243100000000     0.166666666667     0.250000000000     0          
T        Si     0.261733333333     0.201966666667     0.283033333333     0          
O        O      0.026333333333     0.196833333333     0.219033333333     0          
T        Si     0.071600000000     0.201966666667     0.216966666667     0          
O        O      0.307000000000     0.136500000000     0.219033333333     0          
T        Si     0.261733333333     0.131366666667     0.216966666667     0          
O        O      0.140333333333     0.030166666667     0.385700000000     0          
O        O      0.080833333333     0.027100000000     0.333333333333     0          
O        O      0.076433333333     0.000000000000     0.416666666667     0          
O        O      0.083333333333     0.083333333333     0.399400000000     0          
T        Si     0.095066666667     0.035300000000     0.383633333333     0          
T        Si     0.000000000000     0.166666666667     0.416666666667     0          
O        O      0.193000000000     0.303166666667     0.385700000000     0          
O        O      0.252500000000     0.306233333333     0.333333333333     0          
O        O      0.256900000000     0.000000000000     0.416666666667     0          
O        O      0.250000000000     0.250000000000     0.399400000000     0          
T        Si     0.238266666667     0.298033333333     0.383633333333     0          
O        O      0.140333333333     0.303166666667     0.447633333333     0          
O        O      0.080833333333     0.306233333333     0.500000000000     0          
O        O      0.083333333333     0.250000000000     0.433933333333     0          
T        Si     0.095066666667     0.298033333333     0.449700000000     0          
O        O      0.193000000000     0.030166666667     0.447633333333     0          
O        O      0.252500000000     0.027100000000     0.500000000000     0          
O        O      0.250000000000     0.083333333333     0.433933333333     0          
T        Si     0.238266666667     0.035300000000     0.449700000000     0          
O        O      0.193000000000     0.303166666667     0.614300000000     0          
O        O      0.256900000000     0.000000000000     0.583333333333     0          
O        O      0.250000000000     0.250000000000     0.600600000000     0          
T        Si     0.238266666667     0.298033333333     0.616366666667     0          
T        Si     0.000000000000     0.166666666667     0.583333333333     0          
O        O      0.140333333333     0.030166666667     0.614300000000     0          
O        O      0.076433333333     0.000000000000     0.583333333333     0          
O        O      0.083333333333     0.083333333333     0.600600000000     0          
T        Si     0.095066666667     0.035300000000     0.616366666667     0          
O        O      0.193000000000     0.030166666667     0.552366666667     0          
O        O      0.250000000000     0.083333333333     0.566066666667     0          
T        Si     0.238266666667     0.035300000000     0.550300000000     0          
O        O      0.140333333333     0.303166666667     0.552366666667     0          
O        O      0.083333333333     0.250000000000     0.566066666667     0          
T        Si     0.095066666667     0.298033333333     0.550300000000     0          
O        O      0.307000000000     0.196833333333     0.385700000000     0          
O        O      0.247500000000     0.193766666667     0.333333333333     0          
O        O      0.243100000000     0.166666666667     0.416666666667     0          
T        Si     0.261733333333     0.201966666667     0.383633333333     0          
T        Si     0.166666666667     0.000000000000     0.416666666667     0          
O        O      0.026333333333     0.136500000000     0.385700000000     0          
O        O      0.085833333333     0.139566666667     0.333333333333     0          
O        O      0.090233333333     0.166666666667     0.416666666667     0          
T        Si     0.071600000000     0.131366666667     0.383633333333     0          
O        O      0.307000000000     0.136500000000     0.447633333333     0          
O        O      0.247500000000     0.139566666667     0.500000000000     0          
T        Si     0.261733333333     0.131366666667     0.449700000000     0          
O        O      0.026333333333     0.196833333333     0.447633333333     0          
O        O      0.085833333333     0.193766666667     0.500000000000     0          
T        Si     0.071600000000     0.201966666667     0.449700000000     0          
O        O      0.026333333333     0.136500000000     0.614300000000     0          
O        O      0.090233333333     0.166666666667     0.583333333333     0          
T        Si     0.071600000000     0.131366666667     0.616366666667     0          
T        Si     0.166666666667     0.000000000000     0.583333333333     0          
O        O      0.307000000000     0.196833333333     0.614300000000     0          
O        O      0.243100000000     0.166666666667     0.583333333333     0          
T        Si     0.261733333333     0.201966666667     0.616366666667     0          
O        O      0.026333333333     0.196833333333     0.552366666667     0          
T        Si     0.071600000000     0.201966666667     0.550300000000     0          
O        O      0.307000000000     0.136500000000     0.552366666667     0          
T        Si     0.261733333333     0.131366666667     0.550300000000     0          
O        O      0.140333333333     0.030166666667     0.719033333333     0          
O        O      0.080833333333     0.027100000000     0.666666666667     0          
O        O      0.076433333333     0.000000000000     0.750000000000     0          
O        O      0.083333333333     0.083333333333     0.732733333333     0          
T        Si     0.095066666667     0.035300000000     0.716966666667     0          
T        Si     0.000000000000     0.166666666667     0.750000000000     0          
O        O      0.193000000000     0.303166666667     0.719033333333     0          
O        O      0.252500000000     0.306233333333     0.666666666667     0          
O        O      0.256900000000     0.000000000000     0.750000000000     0          
O        O      0.250000000000     0.250000000000     0.732733333333     0          
T        Si     0.238266666667     0.298033333333     0.716966666667     0          
O        O      0.140333333333     0.303166666667     0.780966666667     0          
O        O      0.080833333333     0.306233333333     0.833333333333     0          
O        O      0.083333333333     0.250000000000     0.767266666667     0          
T        Si     0.095066666667     0.298033333333     0.783033333333     0          
O        O      0.193000000000     0.030166666667     0.780966666667     0          
O        O      0.252500000000     0.027100000000     0.833333333333     0          
O        O      0.250000000000     0.083333333333     0.767266666667     0          
T        Si     0.238266666667     0.035300000000     0.783033333333     0          
O        O      0.193000000000     0.303166666667     0.947633333333     0          
O        O      0.256900000000     0.000000000000     0.916666666667     0          
O        O      0.250000000000     0.250000000000     0.933933333333     0          
T        Si     0.238266666667     0.298033333333     0.949700000000     0          
T        Si     0.000000000000     0.166666666667     0.916666666667     0          
O        O      0.140333333333     0.030166666667     0.947633333333     0          
O        O      0.076433333333     0.000000000000     0.916666666667     0          
O        O      0.083333333333     0.083333333333     0.933933333333     0          
T        Si     0.095066666667     0.035300000000     0.949700000000     0          
O        O      0.193000000000     0.030166666667     0.885700000000     0          
O        O      0.250000000000     0.083333333333     0.899400000000     0          
T        Si     0.238266666667     0.035300000000     0.883633333333     0          
O        O      0.140333333333     0.303166666667     0.885700000000     0          
O        O      0.083333333333     0.250000000000     0.899400000000     0          
T        Si     0.095066666667     0.298033333333     0.883633333333     0          
O        O      0.307000000000     0.196833333333     0.719033333333     0          
O        O      0.247500000000     0.193766666667     0.666666666667     0          
O        O      0.243100000000     0.166666666667     0.750000000000     0          
T        Si     0.261733333333     0.201966666667     0.716966666667     0          
T        Si     0.166666666667     0.000000000000     0.750000000000     0          
O        O      0.026333333333     0.136500000000     0.719033333333     0          
O        O      0.085833333333     0.139566666667     0.666666666667     0          
O        O      0.090233333333     0.166666666667     0.750000000000     0          
T        Si     0.071600000000     0.131366666667     0.716966666667     0          
O        O      0.307000000000     0.136500000000     0.780966666667     0          
O        O      0.247500000000     0.139566666667     0.833333333333     0          
T        Si     0.261733333333     0.131366666667     0.783033333333     0          
O        O      0.026333333333     0.196833333333     0.780966666667     0          
O        O      0.085833333333     0.193766666667     0.833333333333     0          
T        Si     0.071600000000     0.201966666667     0.783033333333     0          
O        O      0.026333333333     0.136500000000     0.947633333333     0          
O        O      0.090233333333     0.166666666667     0.916666666667     0          
T        Si     0.071600000000     0.131366666667     0.949700000000     0          
T        Si     0.166666666667     0.000000000000     0.916666666667     0          
O        O      0.307000000000     0.196833333333     0.947633333333     0          
O        O      0.243100000000     0.166666666667     0.916666666667     0          
T        Si     0.261733333333     0.201966666667     0.949700000000     0          
O        O      0.026333333333     0.196833333333     0.885700000000     0          
T        Si     0.071600000000     0.201966666667     0.883633333333     0          
O        O      0.307000000000     0.136500000000     0.885700000000     0          
T        Si     0.261733333333     0.131366666667     0.883633333333     0          
O        O      0.140333333333     0.363500000000     0.052366666667     0          
O        O      0.080833333333     0.360433333333     0.000000000000     0          
O        O      0.076433333333     0.333333333333     0.083333333333     0          
O        O      0.083333333333     0.416666666667     0.066066666667     0          
T        Si     0.095066666667     0.368633333333     0.050300000000     0          
T        Si     0.000000000000     0.500000000000     0.083333333333     0          
O        O      0.193000000000     0.636500000000     0.052366666667     0          
O        O      0.252500000000     0.639566666667     0.000000000000     0          
O        O      0.256900000000     0.333333333333     0.083333333333     0          
O        O      0.250000000000     0.583333333333     0.066066666667     0          
T        Si     0.238266666667     0.631366666667     0.050300000000     0          
O        O      0.140333333333     0.636500000000     0.114300000000     0          
O        O      0.080833333333     0.639566666667     0.166666666667     0          
O        O      0.083333333333     0.583333333333     0.100600000000     0          
T        Si     0.095066666667     0.631366666667     0.116366666667     0          
O        O      0.193000000000     0.363500000000     0.114300000000     0          
O        O      0.252500000000     0.360433333333     0.166666666667     0          
O        O      0.250000000000     0.416666666667     0.100600000000     0          
T        Si     0.238266666667     0.368633333333     0.116366666667     0          
O        O      0.193000000000     0.636500000000     0.280966666667     0          
O        O      0.256900000000     0.333333333333     0.250000000000     0          
O        O      0.250000000000     0.583333333333     0.267266666667     0          
T        Si     0.238266666667     0.631366666667     0.283033333333     0          
T        Si     0.000000000000     0.500000000000     0.250000000000     0          
O        O      0.140333333333     0.363500000000     0.280966666667     0          
O        O      0.076433333333     0.333333333333     0.250000000000     0          
O        O      0.083333333333     0.416666666667     0.267266666667     0          
T        Si     0.095066666667     0.368633333333     0.283033333333     0          
O        O      0.193000000000     0.363500000000     0.219033333333     0          
O        O      0.250000000000     0.416666666667     0.232733333333     0          
T        Si     0.238266666667     0.368633333333     0.216966666667     0          
O        O      0.140333333333     0.636500000000     0.219033333333     0          
O        O      0.083333333333     0.583333333333     0.232733333333     0          
T        Si     0.095066666667     0.631366666667     0.216966666667     0          
O        O      0.307000000000     0.530166666667     0.052366666667     0          
O        O      0.247500000000     0.527100000000     0.000000000000     0          
O        O      0.243100000000     0.500000000000     0.083333333333     0          
T        Si     0.261733333333     0.535300000000     0.050300000000     0          
T        Si     0.166666666667     0.333333333333     0.083333333333     0          
O        O      0.026333333333     0.469833333333     0.052366666667     0          
O        O      0.085833333333     0.472900000000     0.000000000000     0          
O        O      0.090233333333     0.500000000000     0.083333333333     0          
T        Si     0.071600000000     0.464700000000     0.050300000000     0          
O        O      0.307000000000     0.469833333333     0.114300000000     0          
O        O      0.247500000000     0.472900000000     0.166666666667     0          
T        Si     0.261733333333     0.464700000000     0.116366666667     0          
O        O      0.026333333333     0.530166666667     0.114300000000     0          
O        O      0.085833333333     0.527100000000     0.166666666667     0          
T        Si     0.071600000000     0.535300000000     0.116366666667     0          
O        O      0.026333333333     0.469833333333     0.280966666667     0          
O        O      0.090233333333     0.500000000000     0.250000000000     0          
T        Si     0.071600000000     0.464700000000     0.283033333333     0          
T        Si     0.166666666667     0.333333333333     0.250000000000     0          
O        O      0.307000000000     0.530166666667     0.280966666667     0          
O        O      0.243100000000     0.500000000000     0.250000000000     0          
T        Si     0.261733333333     0.535300000000     0.283033333333     0          
O        O      0.026333333333     0.530166666667     0.219033333333     0          
T        Si     0.071600000000     0.535300000000     0.216966666667     0          
O        O      0.307000000000     0.469833333333     0.219033333333     0          
T        Si     0.261733333333     0.464700000000     0.216966666667     0          
O        O      0.140333333333     0.363500000000     0.385700000000     0          
O        O      0.080833333333     0.360433333333     0.333333333333     0          
O        O      0.076433333333     0.333333333333     0.416666666667     0          
O        O      0.083333333333     0.416666666667     0.399400000000     0          
T        Si     0.095066666667     0.368633333333     0.383633333333     0          
T        Si     0.000000000000     0.500000000000     0.416666666667     0          
O        O      0.193000000000     0.636500000000     0.385700000000     0          
O        O      0.252500000000     0.639566666667     0.333333333333     0          
O        O      0.256900000000     0.333333333333     0.416666666667     0          
O        O      0.250000000000     0.583333333333     0.399400000000     0          
T        Si     0.238266666667     0.631366666667     0.383633333333     0          
O        O      0.140333333333     0.636500000000     0.447633333333     0          
O        O      0.080833333333     0.639566666667     0.500000000000     0          
O        O      0.083333333333     0.583333333333     0.433933333333     0          
T        Si     0.095066666667     0.631366666667     0.449700000000     0          
O        O      0.193000000000     0.363500000000     0.447633333333     0          
O        O      0.252500000000     0.360433333333     0.500000000000     0          
O        O      0.250000000000     0.416666666667     0.433933333333     0          
T        Si     0.238266666667     0.368633333333     0.449700000000     0          
O        O      0.193000000000     0.636500000000     0.614300000000     0          
O        O      0.256900000000     0.333333333333     0.583333333333     0          
O        O      0.250000000000     0.583333333333     0.600600000000     0          
T        Si     0.238266666667     0.631366666667     0.616366666667     0          
T        Si     0.000000000000     0.500000000000     0.583333333333     0          
O        O      0.140333333333     0.363500000000     0.614300000000     0          
O        O      0.076433333333     0.333333333333     0.583333333333     0          
O        O      0.083333333333     0.416666666667     0.600600000000     0          
T        Si     0.095066666667     0.368633333333     0.616366666667     0          
O        O      0.193000000000     0.363500000000     0.552366666667     0          
O        O      0.250000000000     0.416666666667     0.566066666667     0          
T        Si     0.238266666667     0.368633333333     0.550300000000     0          
O        O      0.140333333333     0.636500000000     0.552366666667     0          
O        O      0.083333333333     0.583333333333     0.566066666667     0          
T        Si     0.095066666667     0.631366666667     0.550300000000     0          
O        O      0.307000000000     0.530166666667     0.385700000000     0          
O        O      0.247500000000     0.527100000000     0.333333333333     0          
O        O      0.243100000000     0.500000000000     0.416666666667     0          
T        Si     0.261733333333     0.535300000000     0.383633333333     0          
T        Si     0.166666666667     0.333333333333     0.416666666667     0          
O        O      0.026333333333     0.469833333333     0.385700000000     0          
O        O      0.085833333333     0.472900000000     0.333333333333     0          
O        O      0.090233333333     0.500000000000     0.416666666667     0          
T        Si     0.071600000000     0.464700000000     0.383633333333     0          
O        O      0.307000000000     0.469833333333     0.447633333333     0          
O        O      0.247500000000     0.472900000000     0.500000000000     0          
T        Si     0.261733333333     0.464700000000     0.449700000000     0          
O        O      0.026333333333     0.530166666667     0.447633333333     0          
O        O      0.085833333333     0.527100000000     0.500000000000     0          
T        Si     0.071600000000     0.535300000000     0.449700000000     0          
O        O      0.026333333333     0.469833333333     0.614300000000     0          
O        O      0.090233333333     0.500000000000     0.583333333333     0          
T        Si     0.071600000000     0.464700000000     0.616366666667     0          
T        Si     0.166666666667     0.333333333333     0.583333333333     0          
O        O      0.307000000000     0.530166666667     0.614300000000     0          
O        O      0.243100000000     0.500000000000     0.583333333333     0          
T        Si     0.261733333333     0.535300000000     0.616366666667     0          
O        O      0.026333333333     0.530166666667     0.552366666667     0          
T        Si     0.071600000000     0.535300000000     0.550300000000     0          
O        O      0.307000000000     0.469833333333     0.552366666667     0          
T        Si     0.261733333333     0.464700000000     0.550300000000     0          
O        O      0.140333333333     0.363500000000     0.719033333333     0          
O        O      0.080833333333     0.360433333333     0.666666666667     0          
O        O      0.076433333333     0.333333333333     0.750000000000     0          
O        O      0.083333333333     0.416666666667     0.732733333333     0          
T        Si     0.095066666667     0.368633333333     0.716966666667     0          
T        Si     0.000000000000     0.500000000000     0.750000000000     0          
O        O      0.193000000000     0.636500000000     0.719033333333     0          
O        O      0.252500000000     0.639566666667     0.666666666667     0          
O        O      0.256900000000     0.333333333333     0.750000000000     0          
O        O      0.250000000000     0.583333333333     0.732733333333     0          
T        Si     0.238266666667     0.631366666667     0.716966666667     0          
O        O      0.140333333333     0.636500000000     0.780966666667     0          
O        O      0.080833333333     0.639566666667     0.833333333333     0          
O        O      0.083333333333     0.583333333333     0.767266666667     0          
T        Si     0.095066666667     0.631366666667     0.783033333333     0          
O        O      0.193000000000     0.363500000000     0.780966666667     0          
O        O      0.252500000000     0.360433333333     0.833333333333     0          
O        O      0.250000000000     0.416666666667     0.767266666667     0          
T        Si     0.238266666667     0.368633333333     0.783033333333     0          
O        O      0.193000000000     0.636500000000     0.947633333333     0          
O        O      0.256900000000     0.333333333333     0.916666666667     0          
O        O      0.250000000000     0.583333333333     0.933933333333     0          
T        Si     0.238266666667     0.631366666667     0.949700000000     0          
T        Si     0.000000000000     0.500000000000     0.916666666667     0          
O        O      0.140333333333     0.363500000000     0.947633333333     0          
O        O      0.076433333333     0.333333333333     0.916666666667     0          
O        O      0.083333333333     0.416666666667     0.933933333333     0          
T        Si     0.095066666667     0.368633333333     0.949700000000     0          
O        O      0.193000000000     0.363500000000     0.885700000000     0          
O        O      0.250000000000     0.416666666667     0.899400000000     0          
T        Si     0.238266666667     0.368633333333     0.883633333333     0          
O        O      0.140333333333     0.636500000000     0.885700000000     0          
O        O      0.083333333333     0.583333333333     0.899400000000     0          
T        Si     0.095066666667     0.631366666667     0.883633333333     0          
O        O      0.307000000000     0.530166666667     0.719033333333     0          
O        O      0.247500000000     0.527100000000     0.666666666667     0          
O        O      0.243100000000     0.500000000000     0.750000000000     0          
T        Si     0.261733333333     0.535300000000     0.716966666667     0          
T        Si     0.166666666667     0.333333333333     0.750000000000     0          
O        O      0.026333333333     0.469833333333     0.719033333333     0          
O        O      0.085833333333     0.472900000000     0.666666666667     0          
O        O      0.090233333333     0.500000000000     0.750000000000     0          
T        Si     0.071600000000     0.464700000000     0.716966666667     0          
O        O      0.307000000000     0.469833333333     0.780966666667     0          
O        O      0.247500000000     0.472900000000     0.833333333333     0          
T        Si     0.261733333333     0.464700000000     0.783033333333     0          
O        O      0.026333333333     0.530166666667     0.780966666667     0          
O        O      0.085833333333     0.527100000000     0.833333333333     0          
T        Si     0.071600000000     0.535300000000     0.783033333333     0          
O        O      0.026333333333     0.469833333333     0.947633333333     0          
O        O      0.090233333333     0.500000000000     0.916666666667     0          
T        Si     0.071600000000     0.464700000000     0.949700000000     0          
T        Si     0.166666666667     0.333333333333     0.916666666667     0          
O        O      0.307000000000     0.530166666667     0.947633333333     0          
O        O      0.243100000000     0.500000000000     0.916666666667     0          
T        Si     0.261733333333     0.535300000000     0.949700000000     0          
O        O      0.026333333333     0.530166666667     0.885700000000     0          
T        Si     0.071600000000     0.535300000000     0.883633333333     0          
O        O      0.307000000000     0.469833333333     0.885700000000     0          
T        Si     0.261733333333     0.464700000000     0.883633333333     0          
O        O      0.140333333333     0.696833333333     0.052366666667     0          
O        O      0.080833333333     0.693766666667     0.000000000000     0          
O        O      0.076433333333     0.666666666667     0.083333333333     0          
O        O      0.083333333333     0.750000000000     0.066066666667     0          
T        Si     0.095066666667     0.701966666667     0.050300000000     0          
T        Si     0.000000000000     0.833333333333     0.083333333333     0          
O        O      0.193000000000     0.969833333333     0.052366666667     0          
O        O      0.252500000000     0.972900000000     0.000000000000     0          
O        O      0.256900000000     0.666666666667     0.083333333333     0          
O        O      0.250000000000     0.916666666667     0.066066666667     0          
T        Si     0.238266666667     0.964700000000     0.050300000000     0          
O        O      0.140333333333     0.969833333333     0.114300000000     0          
O        O      0.080833333333     0.972900000000     0.166666666667     0          
O        O      0.083333333333     0.916666666667     0.100600000000     0          
T        Si     0.095066666667     0.964700000000     0.116366666667     0          
O        O      0.193000000000     0.696833333333     0.114300000000     0          
O        O      0.252500000000     0.693766666667     0.166666666667     0          
O        O      0.250000000000     0.750000000000     0.100600000000     0          
T        Si     0.238266666667     0.701966666667     0.116366666667     0          
O        O      0.193000000000     0.969833333333     0.280966666667     0          
O        O      0.256900000000     0.666666666667     0.250000000000     0          
O        O      0.250000000000     0.916666666667     0.267266666667     0          
T        Si     0.238266666667     0.964700000000     0.283033333333     0          
T        Si     0.000000000000     0.833333333333     0.250000000000     0          
O        O      0.140333333333     0.696833333333     0.280966666667     0          
O        O      0.076433333333     0.666666666667     0.250000000000     0          
O        O      0.083333333333     0.750000000000     0.267266666667     0          
T        Si     0.095066666667     0.701966666667     0.283033333333     0          
O        O      0.193000000000     0.696833333333     0.219033333333     0          
O        O      0.250000000000     0.750000000000     0.232733333333     0          
T        Si     0.238266666667     0.701966666667     0.216966666667     0          
O        O      0.140333333333     0.969833333333     0.219033333333     0          
O        O      0.083333333333     0.916666666667     0.232733333333     0          
T        Si     0.095066666667     0.964700000000     0.216966666667     0          
O        O      0.307000000000     0.863500000000     0.052366666667     0          
O        O      0.247500000000     0.860433333333     0.000000000000     0          
O        O      0.243100000000     0.833333333333     0.083333333333     0          
T        Si     0.261733333333     0.868633333333     0.050300000000     0          
T        Si     0.166666666667     0.666666666667     0.083333333333     0          
O        O      0.026333333333     0.803166666667     0.052366666667     0          
O        O      0.085833333333     0.806233333333     0.000000000000     0          
O        O      0.090233333333     0.833333333333     0.083333333333     0          
T        Si     0.071600000000     0.798033333333     0.050300000000     0          
O        O      0.307000000000     0.803166666667     0.114300000000     0          
O        O      0.247500000000     0.806233333333     0.166666666667     0          
T        Si     0.261733333333     0.798033333333     0.116366666667     0          
O        O      0.026333333333     0.863500000000     0.114300000000     0          
O        O      0.085833333333     0.860433333333     0.166666666667     0          
T        Si     0.071600000000     0.868633333333     0.116366666667     0          
O        O      0.026333333333     0.803166666667     0.280966666667     0          
O        O      0.090233333333     0.833333333333     0.250000000000     0          
T        Si     0.071600000000     0.798033333333     0.283033333333     0          
T        Si     0.166666666667     0.666666666667     0.250000000000     0          
O        O      0.307000000000     0.863500000000     0.280966666667     0          
O        O      0.243100000000     0.833333333333     0.250000000000     0          
T        Si     0.261733333333     0.868633333333     0.283033333333     0          
O        O      0.026333333333     0.863500000000     0.219033333333     0          
T        Si     0.071600000000     0.868633333333     0.216966666667     0          
O        O      0.307000000000     0.803166666667     0.219033333333     0          
T        Si     0.261733333333     0.798033333333     0.216966666667     0          
O        O      0.140333333333     0.696833333333     0.385700000000     0          
O        O      0.080833333333     0.693766666667     0.333333333333     0          
O        O      0.076433333333     0.666666666667     0.416666666667     0          
O        O      0.083333333333     0.750000000000     0.399400000000     0          
T        Si     0.095066666667     0.701966666667     0.383633333333     0          
T        Si     0.000000000000     0.833333333333     0.416666666667     0          
O        O      0.193000000000     0.969833333333     0.385700000000     0          
O        O      0.252500000000     0.972900000000     0.333333333333     0          
O        O      0.256900000000     0.666666666667     0.416666666667     0          
O        O      0.250000000000     0.916666666667     0.399400000000     0          
T        Si     0.238266666667     0.964700000000     0.383633333333     0          
O        O      0.140333333333     0.969833333333     0.447633333333     0          
O        O      0.080833333333     0.972900000000     0.500000000000     0          
O        O      0.083333333333     0.916666666667     0.433933333333     0          
T        Si     0.095066666667     0.964700000000     0.449700000000     0          
O        O      0.193000000000     0.696833333333     0.447633333333     0          
O        O      0.252500000000     0.693766666667     0.500000000000     0          
O        O      0.250000000000     0.750000000000     0.433933333333     0          
T        Si     0.238266666667     0.701966666667     0.449700000000     0          
O        O      0.193000000000     0.969833333333     0.614300000000     0          
O        O      0.256900000000     0.666666666667     0.583333333333     0          
O        O      0.250000000000     0.916666666667     0.600600000000     0          
T        Si     0.238266666667     0.964700000000     0.616366666667     0          
T        Si     0.000000000000     0.833333333333     0.583333333333     0          
O        O      0.140333333333     0.696833333333     0.614300000000     0          
O        O      0.076433333333     0.666666666667     0.583333333333     0          
O        O      0.083333333333     0.750000000000     0.600600000000     0          
T        Si     0.095066666667     0.701966666667     0.616366666667     0          
O        O      0.193000000000     0.696833333333     0.552366666667     0          
O        O      0.250000000000     0.750000000000     0.566066666667     0          
T        Si     0.238266666667     0.701966666667     0.550300000000     0          
O        O      0.140333333333     0.969833333333     0.552366666667     0          
O        O      0.083333333333     0.916666666667     0.566066666667     0          
T        Si     0.095066666667     0.964700000000     0.550300000000     0          
O        O      0.307000000000     0.863500000000     0.385700000000     0          
O        O      0.247500000000     0.860433333333     0.333333333333     0          
O        O      0.243100000000     0.833333333333     0.416666666667     0          
T        Si     0.261733333333     0.868633333333     0.383633333333     0          
T        Si     0.166666666667     0.666666666667     0.416666666667     0          
O        O      0.026333333333     0.803166666667     0.385700000000     0          
O        O      0.085833333333     0.806233333333     0.333333333333     0          
O        O      0.090233333333     0.833333333333     0.416666666667     0          
T        Si     0.071600000000     0.798033333333     0.383633333333     0          
O        O      0.307000000000     0.803166666667     0.447633333333     0          
O        O      0.247500000000     0.806233333333     0.500000000000     0          
T        Si     0.261733333333     0.798033333333     0.449700000000     0          
O        O      0.026333333333     0.863500000000     0.447633333333     0          
O        O      0.085833333333     0.860433333333     0.500000000000     0          
T        Si     0.071600000000     0.868633333333     0.449700000000     0          
O        O      0.026333333333     0.803166666667     0.614300000000     0          
O        O      0.090233333333     0.833333333333     0.583333333333     0          
T        Si     0.071600000000     0.798033333333     0.616366666667     0          
T        Si     0.166666666667     0.666666666667     0.583333333333     0          
O        O      0.307000000000     0.863500000000     0.614300000000     0          
O        O      0.243100000000     0.833333333333     0.583333333333     0          
T        Si     0.261733333333     0.868633333333     0.616366666667     0          
O        O      0.026333333333     0.863500000000     0.552366666667     0          
T        Si     0.071600000000     0.868633333333     0.550300000000     0          
O        O      0.307000000000     0.803166666667     0.552366666667     0          
T        Si     0.261733333333     0.798033333333     0.550300000000     0          
O        O      0.140333333333     0.696833333333     0.719033333333     0          
O        O      0.080833333333     0.693766666667     0.666666666667     0          
O        O      0.076433333333     0.666666666667     0.750000000000     0          
O        O      0.083333333333     0.750000000000     0.732733333333     0          
T        Si     0.095066666667     0.701966666667     0.716966666667     0          
T        Si     0.000000000000     0.833333333333     0.750000000000     0          
O        O      0.193000000000     0.969833333333     0.719033333333     0          
O        O      0.252500000000     0.972900000000     0.666666666667     0          
O        O      0.256900000000     0.666666666667     0.750000000000     0          
O        O      0.250000000000     0.916666666667     0.732733333333     0          
T        Si     0.238266666667     0.964700000000     0.716966666667     0          
O        O      0.140333333333     0.969833333333     0.780966666667     0          
O        O      0.080833333333     0.972900000000     0.833333333333     0          
O        O      0.083333333333     0.916666666667     0.767266666667     0          
T        Si     0.095066666667     0.964700000000     0.783033333333     0          
O        O      0.193000000000     0.696833333333     0.780966666667     0          
O        O      0.252500000000     0.693766666667     0.833333333333     0          
O        O      0.250000000000     0.750000000000     0.767266666667     0          
T        Si     0.238266666667     0.701966666667     0.783033333333     0          
O        O      0.193000000000     0.969833333333     0.947633333333     0          
O        O      0.256900000000     0.666666666667     0.916666666667     0          
O        O      0.250000000000     0.916666666667     0.933933333333     0          
T        Si     0.238266666667     0.964700000000     0.949700000000     0          
T        Si     0.000000000000     0.833333333333     0.916666666667     0          
O        O      0.140333333333     0.696833333333     0.947633333333     0          
O        O      0.076433333333     0.666666666667     0.916666666667     0          
O        O      0.083333333333     0.750000000000     0.933933333333     0          
T        Si     0.095066666667     0.701966666667     0.949700000000     0          
O        O      0.193000000000     0.696833333333     0.885700000000     0          
O        O      0.250000000000     0.750000000000     0.899400000000     0          
T        Si     0.238266666667     0.701966666667     0.883633333333     0          
O        O      0.140333333333     0.969833333333     0.885700000000     0          
O        O      0.083333333333     0.916666666667     0.899400000000     0          
T        Si     0.095066666667     0.964700000000     0.883633333333     0          
O        O      0.307000000000     0.863500000000     0.719033333333     0          
O        O      0.247500000000     0.860433333333     0.666666666667     0          
O        O      0.243100000000     0.833333333333     0.750000000000     0          
T        Si     0.261733333333     0.868633333333     0.716966666667     0          
T        Si     0.166666666667     0.666666666667     0.750000000000     0          
O        O      0.026333333333     0.803166666667     0.719033333333     0          
O        O      0.085833333333     0.806233333333     0.666666666667     0          
O        O      0.090233333333     0.833333333333     0.750000000000     0          
T        Si     0.071600000000     0.798033333333     0.716966666667     0          
O        O      0.307000000000     0.803166666667     0.780966666667     0          
O        O      0.247500000000     0.806233333333     0.833333333333     0          
T        Si     0.261733333333     0.798033333333     0.783033333333     0          
O        O      0.026333333333     0.863500000000     0.780966666667     0          
O        O      0.085833333333     0.860433333333     0.833333333333     0          
T        Si     0.071600000000     0.868633333333     0.783033333333     0          
O        O      0.026333333333     0.803166666667     0.947633333333     0          
O        O      0.090233333333     0.833333333333     0.916666666667     0          
T        Si     0.071600000000     0.798033333333     0.949700000000     0          
T        Si     0.166666666667     0.666666666667     0.916666666667     0          
O        O      0.307000000000     0.863500000000     0.947633333333     0          
O        O      0.243100000000     0.833333333333     0.916666666667     0          
T        Si     0.261733333333     0.868633333333     0.949700000000     0          
O        O      0.026333333333     0.863500000000     0.885700000000     0          
T        Si     0.071600000000     0.868633333333     0.883633333333     0          
O        O      0.307000000000     0.803166666667     0.885700000000     0          
T        Si     0.261733333333     0.798033333333     0.883633333333     0          
O        O      0.473666666667     0.030166666667     0.052366666667     0          
O        O      0.414166666667     0.027100000000     0.000000000000     0          
O        O      0.409766666667     0.000000000000     0.083333333333     0          
O        O      0.416666666667     0.083333333333     0.066066666667     0          
T        Si     0.428400000000     0.035300000000     0.050300000000     0          
T        Si     0.333333333333     0.166666666667     0.083333333333     0          
O        O      0.526333333333     0.303166666667     0.052366666667     0          
O        O      0.585833333333     0.306233333333     0.000000000000     0          
O        O      0.590233333333     0.000000000000     0.083333333333     0          
O        O      0.583333333333     0.250000000000     0.066066666667     0          
T        Si     0.571600000000     0.298033333333     0.050300000000     0          
O        O      0.473666666667     0.303166666667     0.114300000000     0          
O        O      0.414166666667     0.306233333333     0.166666666667     0          
O        O      0.416666666667     0.250000000000     0.100600000000     0          
T        Si     0.428400000000     0.298033333333     0.116366666667     0          
O        O      0.526333333333     0.030166666667     0.114300000000     0          
O        O      0.585833333333     0.027100000000     0.166666666667     0          
O        O      0.583333333333     0.083333333333     0.100600000000     0          
T        Si     0.571600000000     0.035300000000     0.116366666667     0          
O        O      0.526333333333     0.303166666667     0.280966666667     0          
O        O      0.590233333333     0.000000000000     0.250000000000     0          
O        O      0.583333333333     0.250000000000     0.267266666667     0          
T        Si     0.571600000000     0.298033333333     0.283033333333     0          
T        Si     0.333333333333     0.166666666667     0.250000000000     0          
O        O      0.473666666667     0.030166666667     0.280966666667     0          
O        O      0.409766666667     0.000000000000     0.250000000000     0          
O        O      0.416666666667     0.083333333333     0.267266666667     0          
T        Si     0.428400000000     0.035300000000     0.283033333333     0          
O        O      0.526333333333     0.030166666667     0.219033333333     0          
O        O      0.583333333333     0.083333333333     0.232733333333     0          
T        Si     0.571600000000     0.035300000000     0.216966666667     0          
O        O      0.473666666667     0.303166666667     0.219033333333     0          
O        O      0.416666666667     0.250000000000     0.232733333333     0          
T        Si     0.428400000000     0.298033333333     0.216966666667     0          
O        O      0.640333333333     0.196833333333     0.052366666667     0          
O        O      0.580833333333     0.193766666667     0.000000000000     0          
O        O      0.576433333333     0.166666666667     0.083333333333     0          
T        Si     0.595066666667     0.201966666667     0.050300000000     0          
T        Si     0.500000000000     0.000000000000     0.083333333333     0          
O        O      0.359666666667     0.136500000000     0.052366666667     0          
O        O      0.419166666667     0.139566666667     0.000000000000     0          
O        O      0.423566666667     0.166666666667     0.083333333333     0          
T        Si     0.404933333333     0.131366666667     0.050300000000     0          
O        O      0.640333333333     0.136500000000     0.114300000000     0          
O        O      0.580833333333     0.139566666667     0.166666666667     0          
T        Si     0.595066666667     0.131366666667     0.116366666667     0          
O        O      0.359666666667     0.196833333333     0.114300000000     0          
O        O      0.419166666667     0.193766666667     0.166666666667     0          
T        Si     0.404933333333     0.201966666667     0.116366666667     0          
O        O      0.359666666667     0.136500000000     0.280966666667     0          
O        O      0.423566666667     0.166666666667     0.250000000000     0          
T        Si     0.404933333333     0.131366666667     0.283033333333     0          
T        Si     0.500000000000     0.000000000000     0.250000000000     0          
O        O      0.640333333333     0.196833333333     0.280966666667     0          
O        O      0.576433333333     0.166666666667     0.250000000000     0          
T        Si     0.595066666667     0.201966666667     0.283033333333     0          
O        O      0.359666666667     0.196833333333     0.219033333333     0          
T        Si     0.404933333333     0.201966666667     0.216966666667     0          
O        O      0.640333333333     0.136500000000     0.219033333333     0          
T        Si     0.595066666667     0.131366666667     0.216966666667     0          
O        O      0.473666666667     0.030166666667     0.385700000000     0          
O        O      0.414166666667     0.027100000000     0.333333333333     0          
O        O      0.409766666667     0.000000000000     0.416666666667     0          
O        O      0.416666666667     0.083333333333     0.399400000000     0          
T        Si     0.428400000000     0.035300000000     0.383633333333     0          
T        Si     0.333333333333     0.166666666667     0.416666666667     0          
O        O      0.526333333333     0.303166666667     0.385700000000     0          
O        O      0.585833333333     0.306233333333     0.333333333333     0          
O        O      0.590233333333     0.000000000000     0.416666666667     0          
O        O      0.583333333333     0.250000000000     0.399400000000     0          
T        Si     0.571600000000     0.298033333333     0.383633333333     0          
O        O      0.473666666667     0.303166666667     0.447633333333     0          
O        O      0.414166666667     0.306233333333     0.500000000000     0          
O        O      0.416666666667     0.250000000000     0.433933333333     0          
T        Si     0.428400000000     0.298033333333     0.449700000000     0          
O        O      0.526333333333     0.030166666667     0.447633333333     0          
O        O      0.585833333333     0.027100000000     0.500000000000     0          
O        O      0.583333333333     0.083333333333     0.433933333333     0          
T        Si     0.571600000000     0.035300000000     0.449700000000     0          
O        O      0.526333333333     0.303166666667     0.614300000000     0          
O        O      0.590233333333     0.000000000000     0.583333333333     0          
O        O      0.583333333333     0.250000000000     0.600600000000     0          
T        Si     0.571600000000     0.298033333333     0.616366666667     0          
T        Si     0.333333333333     0.166666666667     0.583333333333     0          
O        O      0.473666666667     0.030166666667     0.614300000000     0          
O        O      0.409766666667     0.000000000000     0.583333333333     0          
O        O      0.416666666667     0.083333333333     0.600600000000     0          
T        Si     0.428400000000     0.035300000000     0.616366666667     0          
O        O      0.526333333333     0.030166666667     0.552366666667     0          
O        O      0.583333333333     0.083333333333     0.566066666667     0          
T        Si     0.571600000000     0.035300000000     0.550300000000     0          
O        O      0.473666666667     0.303166666667     0.552366666667     0          
O        O      0.416666666667     0.250000000000     0.566066666667     0          
T        Si     0.428400000000     0.298033333333     0.550300000000     0          
O        O      0.640333333333     0.196833333333     0.385700000000     0          
O        O      0.580833333333     0.193766666667     0.333333333333     0          
O        O      0.576433333333     0.166666666667     0.416666666667     0          
T        Si     0.595066666667     0.201966666667     0.383633333333     0          
T        Si     0.500000000000     0.000000000000     0.416666666667     0          
O        O      0.359666666667     0.136500000000     0.385700000000     0          
O        O      0.419166666667     0.139566666667     0.333333333333     0          
O        O      0.423566666667     0.166666666667     0.416666666667     0          
T        Si     0.404933333333     0.131366666667     0.383633333333     0          
O        O      0.640333333333     0.136500000000     0.447633333333     0          
O        O      0.580833333333     0.139566666667     0.500000000000     0          
T        Si     0.595066666667     0.131366666667     0.449700000000     0          
O        O      0.359666666667     0.196833333333     0.447633333333     0          
O        O      0.419166666667     0.193766666667     0.500000000000     0          
T        Si     0.404933333333     0.201966666667     0.449700000000     0          
O        O      0.359666666667     0.136500000000     0.614300000000     0          
O        O      0.423566666667     0.166666666667     0.583333333333     0          
T        Si     0.404933333333     0.131366666667     0.616366666667     0          
T        Si     0.500000000000     0.000000000000     0.583333333333     0          
O        O      0.640333333333     0.196833333333     0.614300000000     0          
O        O      0.576433333333     0.166666666667     0.583333333333     0          
T        Si     0.595066666667     0.201966666667     0.616366666667     0          
O        O      0.359666666667     0.196833333333     0.552366666667     0          
T        Si     0.404933333333     0.201966666667     0.550300000000     0          
O        O      0.640333333333     0.136500000000     0.552366666667     0          
T        Si     0.595066666667     0.131366666667     0.550300000000     0          
O        O      0.473666666667     0.030166666667     0.719033333333     0          
O        O      0.414166666667     0.027100000000     0.666666666667     0          
O        O      0.409766666667     0.000000000000     0.750000000000     0          
O        O      0.416666666667     0.083333333333     0.732733333333     0          
T        Si     0.428400000000     0.035300000000     0.716966666667     0          
T        Si     0.333333333333     0.166666666667     0.750000000000     0          
O        O      0.526333333333     0.303166666667     0.719033333333     0          
O        O      0.585833333333     0.306233333333     0.666666666667     0          
O        O      0.590233333333     0.000000000000     0.750000000000     0          
O        O      0.583333333333     0.250000000000     0.732733333333     0          
T        Si     0.571600000000     0.298033333333     0.716966666667     0          
O        O      0.473666666667     0.303166666667     0.780966666667     0          
O        O      0.414166666667     0.306233333333     0.833333333333     0          
O        O      0.416666666667     0.250000000000     0.767266666667     0          
T        Si     0.428400000000     0.298033333333     0.783033333333     0          
O        O      0.526333333333     0.030166666667     0.780966666667     0          
O        O      0.585833333333     0.027100000000     0.833333333333     0          
O        O      0.583333333333     0.083333333333     0.767266666667     0          
T        Si     0.571600000000     0.035300000000     0.783033333333     0          
O        O      0.526333333333     0.303166666667     0.947633333333     0          
O        O      0.590233333333     0.000000000000     0.916666666667     0          
O        O      0.583333333333     0.250000000000     0.933933333333     0          
T        Si     0.571600000000     0.298033333333     0.949700000000     0          
T        Si     0.333333333333     0.166666666667     0.916666666667     0          
O        O      0.473666666667     0.030166666667     0.947633333333     0          
O        O      0.409766666667     0.000000000000     0.916666666667     0          
O        O      0.416666666667     0.083333333333     0.933933333333     0          
T        Si     0.428400000000     0.035300000000     0.949700000000     0          
O        O      0.526333333333     0.030166666667     0.885700000000     0          
O        O      0.583333333333     0.083333333333     0.899400000000     0          
T        Si     0.571600000000     0.035300000000     0.883633333333     0          
O        O      0.473666666667     0.303166666667     0.885700000000     0          
O        O      0.416666666667     0.250000000000     0.899400000000     0          
T        Si     0.428400000000     0.298033333333     0.883633333333     0          
O        O      0.640333333333     0.196833333333     0.719033333333     0          
O        O      0.580833333333     0.193766666667     0.666666666667     0          
O        O      0.576433333333     0.166666666667     0.750000000000     0          
T        Si     0.595066666667     0.201966666667     0.716966666667     0          
T        Si     0.500000000000     0.000000000000     0.750000000000     0          
O        O      0.359666666667     0.136500000000     0.719033333333     0          
O        O      0.419166666667     0.139566666667     0.666666666667     0          
O        O      0.423566666667     0.166666666667     0.750000000000     0          
T        Si     0.404933333333     0.131366666667     0.716966666667     0          
O        O      0.640333333333     0.136500000000     0.780966666667     0          
O        O      0.580833333333     0.139566666667     0.833333333333     0          
T        Si     0.595066666667     0.131366666667     0.783033333333     0          
O        O      0.359666666667     0.196833333333     0.780966666667     0          
O        O      0.419166666667     0.193766666667     0.833333333333     0          
T        Si     0.404933333333     0.201966666667     0.783033333333     0          
O        O      0.359666666667     0.136500000000     0.947633333333     0          
O        O      0.423566666667     0.166666666667     0.916666666667     0          
T        Si     0.404933333333     0.131366666667     0.949700000000     0          
T        Si     0.500000000000     0.000000000000     0.916666666667     0          
O        O      0.640333333333     0.196833333333     0.947633333333     0          
O        O      0.576433333333     0.166666666667     0.916666666667     0          
T        Si     0.595066666667     0.201966666667     0.949700000000     0          
O        O      0.359666666667     0.196833333333     0.885700000000     0          
T        Si     0.404933333333     0.201966666667     0.883633333333     0          
O        O      0.640333333333     0.136500000000     0.885700000000     0          
T        Si     0.595066666667     0.131366666667     0.883633333333     0          
O        O      0.473666666667     0.363500000000     0.052366666667     0          
O        O      0.414166666667     0.360433333333     0.000000000000     0          
O        O      0.409766666667     0.333333333333     0.083333333333     0          
O        O      0.416666666667     0.416666666667     0.066066666667     0          
T        Si     0.428400000000     0.368633333333     0.050300000000     0          
T        Si     0.333333333333     0.500000000000     0.083333333333     0          
O        O      0.526333333333     0.636500000000     0.052366666667     0          
O        O      0.585833333333     0.639566666667     0.000000000000     0          
O        O      0.590233333333     0.333333333333     0.083333333333     0          
O        O      0.583333333333     0.583333333333     0.066066666667     0          
T        Si     0.571600000000     0.631366666667     0.050300000000     0          
O        O      0.473666666667     0.636500000000     0.114300000000     0          
O        O      0.414166666667     0.639566666667     0.166666666667     0          
O        O      0.416666666667     0.583333333333     0.100600000000     0          
T        Si     0.428400000000     0.631366666667     0.116366666667     0          
O        O      0.526333333333     0.363500000000     0.114300000000     0          
O        O      0.585833333333     0.360433333333     0.166666666667     0          
O        O      0.583333333333     0.416666666667     0.100600000000     0          
T        Si     0.571600000000     0.368633333333     0.116366666667     0          
O        O      0.526333333333     0.636500000000     0.280966666667     0          
O        O      0.590233333333     0.333333333333     0.250000000000     0          
O        O      0.583333333333     0.583333333333     0.267266666667     0          
T        Si     0.571600000000     0.631366666667     0.283033333333     0          
T        Si     0.333333333333     0.500000000000     0.250000000000     0          
O        O      0.473666666667     0.363500000000     0.280966666667     0          
O        O      0.409766666667     0.333333333333     0.250000000000     0          
O        O      0.416666666667     0.416666666667     0.267266666667     0          
T        Si     0.428400000000     0.368633333333     0.283033333333     0          
O        O      0.526333333333     0.363500000000     0.219033333333     0          
O        O      0.583333333333     0.416666666667     0.232733333333     0          
T        Si     0.571600000000     0.368633333333     0.216966666667     0          
O        O      0.473666666667     0.636500000000     0.219033333333     0          
O        O      0.416666666667     0.583333333333     0.232733333333     0          
T        Si     0.428400000000     0.631366666667     0.216966666667     0          
O        O      0.640333333333     0.530166666667     0.052366666667     0          
O        O      0.580833333333     0.527100000000     0.000000000000     0          
O        O      0.576433333333     0.500000000000     0.083333333333     0          
T        Si     0.595066666667     0.535300000000     0.050300000000     0          
T        Si     0.500000000000     0.333333333333     0.083333333333     0          
O        O      0.359666666667     0.469833333333     0.052366666667     0          
O        O      0.419166666667     0.472900000000     0.000000000000     0          
O        O      0.423566666667     0.500000000000     0.083333333333     0          
T        Si     0.404933333333     0.464700000000     0.050300000000     0          
O        O      0.640333333333     0.469833333333     0.114300000000     0          
O        O      0.580833333333     0.472900000000     0.166666666667     0          
T        Si     0.595066666667     0.464700000000     0.116366666667     0          
O        O      0.359666666667     0.530166666667     0.114300000000     0          
O        O      0.419166666667     0.527100000000     0.166666666667     0          
T        Si     0.404933333333     0.535300000000     0.116366666667     0          
O        O      0.359666666667     0.469833333333     0.280966666667     0          
O        O      0.423566666667     0.500000000000     0.250000000000     0          
T        Si     0.404933333333     0.464700000000     0.283033333333     0          
T        Si     0.500000000000     0.333333333333     0.250000000000     0          
O        O      0.640333333333     0.530166666667     0.280966666667     0          
O        O      0.576433333333     0.500000000000     0.250000000000     0          
T        Si     0.595066666667     0.535300000000     0.283033333333     0          
O        O      0.359666666667     0.530166666667     0.219033333333     0          
T        Si     0.404933333333     0.535300000000     0.216966666667     0          
O        O      0.640333333333     0.469833333333     0.219033333333     0          
T        Si     0.595066666667     0.464700000000     0.216966666667     0          
O        O      0.473666666667     0.363500000000     0.385700000000     0          
O        O      0.414166666667     0.360433333333     0.333333333333     0          
O        O      0.409766666667     0.333333333333     0.416666666667     0          
O        O      0.416666666667     0.416666666667     0.399400000000     0          
T        Si     0.428400000000     0.368633333333     0.383633333333     0          
T        Si     0.333333333333     0.500000000000     0.416666666667     0          
O        O      0.526333333333     0.636500000000     0.385700000000     0          
O        O      0.585833333333     0.639566666667     0.333333333333     0          
O        O      0.590233333333     0.333333333333     0.416666666667     0          
O        O      0.583333333333     0.583333333333     0.399400000000     0          
T        Si     0.571600000000     0.631366666667     0.383633333333     0          
O        O      0.473666666667     0.636500000000     0.447633333333     0          
O        O      0.414166666667     0.639566666667     0.500000000000     0          
O        O      0.416666666667     0.583333333333     0.433933333333     0          
T        Si     0.428400000000     0.631366666667     0.449700000000     0          
O        O      0.526333333333     0.363500000000     0.447633333333     0          
O        O      0.585833333333     0.360433333333     0.500000000000     0          
O        O      0.583333333333     0.416666666667     0.433933333333     0          
T        Si     0.571600000000     0.368633333333     0.449700000000     0          
O        O      0.526333333333     0.636500000000     0.614300000000     0          
O        O      0.590233333333     0.333333333333     0.583333333333     0          
O        O      0.583333333333     0.583333333333     0.600600000000     0          
T        Si     0.571600000000     0.631366666667     0.616366666667     0          
T        Si     0.333333333333     0.500000000000     0.583333333333     0          
O        O      0.473666666667     0.363500000000     0.614300000000     0          
O        O      0.409766666667     0.333333333333     0.583333333333     0          
O        O      0.416666666667     0.416666666667     0.600600000000     0          
T        Si     0.428400000000     0.368633333333     0.616366666667     0          
O        O      0.526333333333     0.363500000000     0.552366666667     0          
O        O      0.583333333333     0.416666666667     0.566066666667     0          
T        Si     0.571600000000     0.368633333333     0.550300000000     0          
O        O      0.473666666667     0.636500000000     0.552366666667     0          
O        O      0.416666666667     0.583333333333     0.566066666667     0          
T        Si     0.428400000000     0.631366666667     0.550300000000     0          
O        O      0.640333333333     0.530166666667     0.385700000000     0          
O        O      0.580833333333     0.527100000000     0.333333333333     0          
O        O      0.576433333333     0.500000000000     0.416666666667     0          
T        Si     0.595066666667     0.535300000000     0.383633333333     0          
T        Si     0.500000000000     0.333333333333     0.416666666667     0          
O        O      0.359666666667     0.469833333333     0.385700000000     0          
O        O      0.419166666667     0.472900000000     0.333333333333     0          
O        O      0.423566666667     0.500000000000     0.416666666667     0          
T        Si     0.404933333333     0.464700000000     0.383633333333     0          
O        O      0.640333333333     0.469833333333     0.447633333333     0          
O        O      0.580833333333     0.472900000000     0.500000000000     0          
T        Si     0.595066666667     0.464700000000     0.449700000000     0          
O        O      0.359666666667     0.530166666667     0.447633333333     0          
O        O      0.419166666667     0.527100000000     0.500000000000     0          
T        Si     0.404933333333     0.535300000000     0.449700000000     0          
O        O      0.359666666667     0.469833333333     0.614300000000     0          
O        O      0.423566666667     0.500000000000     0.583333333333     0          
T        Si     0.404933333333     0.464700000000     0.616366666667     0          
T        Si     0.500000000000     0.333333333333     0.583333333333     0          
O        O      0.640333333333     0.530166666667     0.614300000000     0          
O        O      0.576433333333     0.500000000000     0.583333333333     0          
T        Si     0.595066666667     0.535300000000     0.616366666667     0          
O        O      0.359666666667     0.530166666667     0.552366666667     0          
T        Si     0.404933333333     0.535300000000     0.550300000000     0          
O        O      0.640333333333     0.469833333333     0.552366666667     0          
T        Si     0.595066666667     0.464700000000     0.550300000000     0          
O        O      0.473666666667     0.363500000000     0.719033333333     0          
O        O      0.414166666667     0.360433333333     0.666666666667     0          
O        O      0.409766666667     0.333333333333     0.750000000000     0          
O        O      0.416666666667     0.416666666667     0.732733333333     0          
T        Si     0.428400000000     0.368633333333     0.716966666667     0          
T        Si     0.333333333333     0.500000000000     0.750000000000     0          
O        O      0.526333333333     0.636500000000     0.719033333333     0          
O        O      0.585833333333     0.639566666667     0.666666666667     0          
O        O      0.590233333333     0.333333333333     0.750000000000     0          
O        O      0.583333333333     0.583333333333     0.732733333333     0          
T        Si     0.571600000000     0.631366666667     0.716966666667     0          
O        O      0.473666666667     0.636500000000     0.780966666667     0          
O        O      0.414166666667     0.639566666667     0.833333333333     0          
O        O      0.416666666667     0.583333333333     0.767266666667     0          
T        Si     0.428400000000     0.631366666667     0.783033333333     0          
O        O      0.526333333333     0.363500000000     0.780966666667     0          
O        O      0.585833333333     0.360433333333     0.833333333333     0          
O        O      0.583333333333     0.416666666667     0.767266666667     0          
T        Si     0.571600000000     0.368633333333     0.783033333333     0          
O        O      0.526333333333     0.636500000000     0.947633333333     0          
O        O      0.590233333333     0.333333333333     0.916666666667     0          
O        O      0.583333333333     0.583333333333     0.933933333333     0          
T        Si     0.571600000000     0.631366666667     0.949700000000     0          
T        Si     0.333333333333     0.500000000000     0.916666666667     0          
O        O      0.473666666667     0.363500000000     0.947633333333     0          
O        O      0.409766666667     0.333333333333     0.916666666667     0          
O        O      0.416666666667     0.416666666667     0.933933333333     0          
T        Si     0.428400000000     0.368633333333     0.949700000000     0          
O        O      0.526333333333     0.363500000000     0.885700000000     0          
O        O      0.583333333333     0.416666666667     0.899400000000     0          
T        Si     0.571600000000     0.368633333333     0.883633333333     0          
O        O      0.473666666667     0.636500000000     0.885700000000     0          
O        O      0.416666666667     0.583333333333     0.899400000000     0          
T        Si     0.428400000000     0.631366666667     0.883633333333     0          
O        O      0.640333333333     0.530166666667     0.719033333333     0          
O        O      0.580833333333     0.527100000000     0.666666666667     0          
O        O      0.576433333333     0.500000000000     0.750000000000     0          
T        Si     0.595066666667     0.535300000000     0.716966666667     0          
T        Si     0.500000000000     0.333333333333     0.750000000000     0          
O        O      0.359666666667     0.469833333333     0.719033333333     0          
O        O      0.419166666667     0.472900000000     0.666666666667     0          
O        O      0.423566666667     0.500000000000     0.750000000000     0          
T        Si     0.404933333333     0.464700000000     0.716966666667     0          
O        O      0.640333333333     0.469833333333     0.780966666667     0          
O        O      0.580833333333     0.472900000000     0.833333333333     0          
T        Si     0.595066666667     0.464700000000     0.783033333333     0          
O        O      0.359666666667     0.530166666667     0.780966666667     0          
O        O      0.419166666667     0.527100000000     0.833333333333     0          
T        Si     0.404933333333     0.535300000000     0.783033333333     0          
O        O      0.359666666667     0.469833333333     0.947633333333     0          
O        O      0.423566666667     0.500000000000     0.916666666667     0          
T        Si     0.404933333333     0.464700000000     0.949700000000     0          
T        Si     0.500000000000     0.333333333333     0.916666666667     0          
O        O      0.640333333333     0.530166666667     0.947633333333     0          
O        O      0.576433333333     0.500000000000     0.916666666667     0          
T        Si     0.595066666667     0.535300000000     0.949700000000     0          
O        O      0.359666666667     0.530166666667     0.885700000000     0          
T        Si     0.404933333333     0.535300000000     0.883633333333     0          
O        O      0.640333333333     0.469833333333     0.885700000000     0          
T        Si     0.595066666667     0.464700000000     0.883633333333     0          
O        O      0.473666666667     0.696833333333     0.052366666667     0          
O        O      0.414166666667     0.693766666667     0.000000000000     0          
O        O      0.409766666667     0.666666666667     0.083333333333     0          
O        O      0.416666666667     0.750000000000     0.066066666667     0          
T        Si     0.428400000000     0.701966666667     0.050300000000     0          
T        Si     0.333333333333     0.833333333333     0.083333333333     0          
O        O      0.526333333333     0.969833333333     0.052366666667     0          
O        O      0.585833333333     0.972900000000     0.000000000000     0          
O        O      0.590233333333     0.666666666667     0.083333333333     0          
O        O      0.583333333333     0.916666666667     0.066066666667     0          
T        Si     0.571600000000     0.964700000000     0.050300000000     0          
O        O      0.473666666667     0.969833333333     0.114300000000     0          
O        O      0.414166666667     0.972900000000     0.166666666667     0          
O        O      0.416666666667     0.916666666667     0.100600000000     0          
T        Si     0.428400000000     0.964700000000     0.116366666667     0          
O        O      0.526333333333     0.696833333333     0.114300000000     0          
O        O      0.585833333333     0.693766666667     0.166666666667     0          
O        O      0.583333333333     0.750000000000     0.100600000000     0          
T        Si     0.571600000000     0.701966666667     0.116366666667     0          
O        O      0.526333333333     0.969833333333     0.280966666667     0          
O        O      0.590233333333     0.666666666667     0.250000000000     0          
O        O      0.583333333333     0.916666666667     0.267266666667     0          
T        Si     0.571600000000     0.964700000000     0.283033333333     0          
T        Si     0.333333333333     0.833333333333     0.250000000000     0          
O        O      0.473666666667     0.696833333333     0.280966666667     0          
O        O      0.409766666667     0.666666666667     0.250000000000     0          
O        O      0.416666666667     0.750000000000     0.267266666667     0          
T        Si     0.428400000000     0.701966666667     0.283033333333     0          
O        O      0.526333333333     0.696833333333     0.219033333333     0          
O        O      0.583333333333     0.750000000000     0.232733333333     0          
T        Si     0.571600000000     0.701966666667     0.216966666667     0          
O        O      0.473666666667     0.969833333333     0.219033333333     0          
O        O      0.416666666667     0.916666666667     0.232733333333     0          
T        Si     0.428400000000     0.964700000000     0.216966666667     0          
O        O      0.640333333333     0.863500000000     0.052366666667     0          
O        O      0.580833333333     0.860433333333     0.000000000000     0          
O        O      0.576433333333     0.833333333333     0.083333333333     0          
T        Si     0.595066666667     0.868633333333     0.050300000000     0          
T        Si     0.500000000000     0.666666666667     0.083333333333     0          
O        O      0.359666666667     0.803166666667     0.052366666667     0          
O        O      0.419166666667     0.806233333333     0.000000000000     0          
O        O      0.423566666667     0.833333333333     0.083333333333     0          
T        Si     0.404933333333     0.798033333333     0.050300000000     0          
O        O      0.640333333333     0.803166666667     0.114300000000     0          
O        O      0.580833333333     0.806233333333     0.166666666667     0          
T        Si     0.595066666667     0.798033333333     0.116366666667     0          
O        O      0.359666666667     0.863500000000     0.114300000000     0          
O        O      0.419166666667     0.860433333333     0.166666666667     0          
T        Si     0.404933333333     0.868633333333     0.116366666667     0          
O        O      0.359666666667     0.803166666667     0.280966666667     0          
O        O      0.423566666667     0.833333333333     0.250000000000     0          
T        Si     0.404933333333     0.798033333333     0.283033333333     0          
T        Si     0.500000000000     0.666666666667     0.250000000000     0          
O        O      0.640333333333     0.863500000000     0.280966666667     0          
O        O      0.576433333333     0.833333333333     0.250000000000     0          
T        Si     0.595066666667     0.868633333333     0.283033333333     0          
O        O      0.359666666667     0.863500000000     0.219033333333     0          
T        Si     0.404933333333     0.868633333333     0.216966666667     0          
O        O      0.640333333333     0.803166666667     0.219033333333     0          
T        Si     0.595066666667     0.798033333333     0.216966666667     0          
O        O      0.473666666667     0.696833333333     0.385700000000     0          
O        O      0.414166666667     0.693766666667     0.333333333333     0          
O        O      0.409766666667     0.666666666667     0.416666666667     0          
O        O      0.416666666667     0.750000000000     0.399400000000     0          
T        Si     0.428400000000     0.701966666667     0.383633333333     0          
T        Si     0.333333333333     0.833333333333     0.416666666667     0          
O        O      0.526333333333     0.969833333333     0.385700000000     0          
O        O      0.585833333333     0.972900000000     0.333333333333     0          
O        O      0.590233333333     0.666666666667     0.416666666667     0          
O        O      0.583333333333     0.916666666667     0.399400000000     0          
T        Si     0.571600000000     0.964700000000     0.383633333333     0          
O        O      0.473666666667     0.969833333333     0.447633333333     0          
O        O      0.414166666667     0.972900000000     0.500000000000     0          
O        O      0.416666666667     0.916666666667     0.433933333333     0          
T        Si     0.428400000000     0.964700000000     0.449700000000     0          
O        O      0.526333333333     0.696833333333     0.447633333333     0          
O        O      0.585833333333     0.693766666667     0.500000000000     0          
O        O      0.583333333333     0.750000000000     0.433933333333     0          
T        Si     0.571600000000     0.701966666667     0.449700000000     0          
O        O      0.526333333333     0.969833333333     0.614300000000     0          
O        O      0.590233333333     0.666666666667     0.583333333333     0          
O        O      0.583333333333     0.916666666667     0.600600000000     0          
T        Si     0.571600000000     0.964700000000     0.616366666667     0          
T        Si     0.333333333333     0.833333333333     0.583333333333     0          
O        O      0.473666666667     0.696833333333     0.614300000000     0          
O        O      0.409766666667     0.666666666667     0.583333333333     0          
O        O      0.416666666667     0.750000000000     0.600600000000     0          
T        Si     0.428400000000     0.701966666667     0.616366666667     0          
O        O      0.526333333333     0.696833333333     0.552366666667     0          
O        O      0.583333333333     0.750000000000     0.566066666667     0          
T        Si     0.571600000000     0.701966666667     0.550300000000     0          
O        O      0.473666666667     0.969833333333     0.552366666667     0          
O        O      0.416666666667     0.916666666667     0.566066666667     0          
T        Si     0.428400000000     0.964700000000     0.550300000000     0          
O        O      0.640333333333     0.863500000000     0.385700000000     0          
O        O      0.580833333333     0.860433333333     0.333333333333     0          
O        O      0.576433333333     0.833333333333     0.416666666667     0          
T        Si     0.595066666667     0.868633333333     0.383633333333     0          
T        Si     0.500000000000     0.666666666667     0.416666666667     0          
O        O      0.359666666667     0.803166666667     0.385700000000     0          
O        O      0.419166666667     0.806233333333     0.333333333333     0          
O        O      0.423566666667     0.833333333333     0.416666666667     0          
T        Si     0.404933333333     0.798033333333     0.383633333333     0          
O        O      0.640333333333     0.803166666667     0.447633333333     0          
O        O      0.580833333333     0.806233333333     0.500000000000     0          
T        Si     0.595066666667     0.798033333333     0.449700000000     0          
O        O      0.359666666667     0.863500000000     0.447633333333     0          
O        O      0.419166666667     0.860433333333     0.500000000000     0          
T        Si     0.404933333333     0.868633333333     0.449700000000     0          
O        O      0.359666666667     0.803166666667     0.614300000000     0          
O        O      0.423566666667     0.833333333333     0.583333333333     0          
T        Si     0.404933333333     0.798033333333     0.616366666667     0          
T        Si     0.500000000000     0.666666666667     0.583333333333     0          
O        O      0.640333333333     0.863500000000     0.614300000000     0          
O        O      0.576433333333     0.833333333333     0.583333333333     0          
T        Si     0.595066666667     0.868633333333     0.616366666667     0          
O        O      0.359666666667     0.863500000000     0.552366666667     0          
T        Si     0.404933333333     0.868633333333     0.550300000000     0          
O        O      0.640333333333     0.803166666667     0.552366666667     0          
T        Si     0.595066666667     0.798033333333     0.550300000000     0          
O        O      0.473666666667     0.696833333333     0.719033333333     0          
O        O      0.414166666667     0.693766666667     0.666666666667     0          
O        O      0.409766666667     0.666666666667     0.750000000000     0          
O        O      0.416666666667     0.750000000000     0.732733333333     0          
T        Si     0.428400000000     0.701966666667     0.716966666667     0          
T        Si     0.333333333333     0.833333333333     0.750000000000     0          
O        O      0.526333333333     0.969833333333     0.719033333333     0          
O        O      0.585833333333     0.972900000000     0.666666666667     0          
O        O      0.590233333333     0.666666666667     0.750000000000     0          
O        O      0.583333333333     0.916666666667     0.732733333333     0          
T        Si     0.571600000000     0.964700000000     0.716966666667     0          
O        O      0.473666666667     0.969833333333     0.780966666667     0          
O        O      0.414166666667     0.972900000000     0.833333333333     0          
O        O      0.416666666667     0.916666666667     0.767266666667     0          
T        Si     0.428400000000     0.964700000000     0.783033333333     0          
O        O      0.526333333333     0.696833333333     0.780966666667     0          
O        O      0.585833333333     0.693766666667     0.833333333333     0          
O        O      0.583333333333     0.750000000000     0.767266666667     0          
T        Si     0.571600000000     0.701966666667     0.783033333333     0          
O        O      0.526333333333     0.969833333333     0.947633333333     0          
O        O      0.590233333333     0.666666666667     0.916666666667     0          
O        O      0.583333333333     0.916666666667     0.933933333333     0          
T        Si     0.571600000000     0.964700000000     0.949700000000     0          
T        Si     0.333333333333     0.833333333333     0.916666666667     0          
O        O      0.473666666667     0.696833333333     0.947633333333     0          
O        O      0.409766666667     0.666666666667     0.916666666667     0          
O        O      0.416666666667     0.750000000000     0.933933333333     0          
T        Si     0.428400000000     0.701966666667     0.949700000000     0          
O        O      0.526333333333     0.696833333333     0.885700000000     0          
O        O      0.583333333333     0.750000000000     0.899400000000     0          
T        Si     0.571600000000     0.701966666667     0.883633333333     0          
O        O      0.473666666667     0.969833333333     0.885700000000     0          
O        O      0.416666666667     0.916666666667     0.899400000000     0          
T        Si     0.428400000000     0.964700000000     0.883633333333     0          
O        O      0.640333333333     0.863500000000     0.719033333333     0          
O        O      0.580833333333     0.860433333333     0.666666666667     0          
O        O      0.576433333333     0.833333333333     0.750000000000     0          
T        Si     0.595066666667     0.868633333333     0.716966666667     0          
T        Si     0.500000000000     0.666666666667     0.750000000000     0          
O        O      0.359666666667     0.803166666667     0.719033333333     0          
O        O      0.419166666667     0.806233333333     0.666666666667     0          
O        O      0.423566666667     0.833333333333     0.750000000000     0          
T        Si     0.404933333333     0.798033333333     0.716966666667     0          
O        O      0.640333333333     0.803166666667     0.780966666667     0          
O        O      0.580833333333     0.806233333333     0.833333333333     0          
T        Si     0.595066666667     0.798033333333     0.783033333333     0          
O        O      0.359666666667     0.863500000000     0.780966666667     0          
O        O      0.419166666667     0.860433333333     0.833333333333     0          
T        Si     0.404933333333     0.868633333333     0.783033333333     0          
O        O      0.359666666667     0.803166666667     0.947633333333     0          
O        O      0.423566666667     0.833333333333     0.916666666667     0          
T        Si     0.404933333333     0.798033333333     0.949700000000     0          
T        Si     0.500000000000     0.666666666667     0.916666666667     0          
O        O      0.640333333333     0.863500000000     0.947633333333     0          
O        O      0.576433333333     0.833333333333     0.916666666667     0          
T        Si     0.595066666667     0.868633333333     0.949700000000     0          
O        O      0.359666666667     0.863500000000     0.885700000000     0          
T        Si     0.404933333333     0.868633333333     0.883633333333     0          
O        O      0.640333333333     0.803166666667     0.885700000000     0          
T        Si     0.595066666667     0.798033333333     0.883633333333     0          
O        O      0.807000000000     0.030166666667     0.052366666667     0          
O        O      0.747500000000     0.027100000000     0.000000000000     0          
O        O      0.743100000000     0.000000000000     0.083333333333     0          
O        O      0.750000000000     0.083333333333     0.066066666667     0          
T        Si     0.761733333333     0.035300000000     0.050300000000     0          
T        Si     0.666666666667     0.166666666667     0.083333333333     0          
O        O      0.859666666667     0.303166666667     0.052366666667     0          
O        O      0.919166666667     0.306233333333     0.000000000000     0          
O        O      0.923566666667     0.000000000000     0.083333333333     0          
O        O      0.916666666667     0.250000000000     0.066066666667     0          
T        Si     0.904933333333     0.298033333333     0.050300000000     0          
O        O      0.807000000000     0.303166666667     0.114300000000     0          
O        O      0.747500000000     0.306233333333     0.166666666667     0          
O        O      0.750000000000     0.250000000000     0.100600000000     0          
T        Si     0.761733333333     0.298033333333     0.116366666667     0          
O        O      0.859666666667     0.030166666667     0.114300000000     0          
O        O      0.919166666667     0.027100000000     0.166666666667     0          
O        O      0.916666666667     0.083333333333     0.100600000000     0          
T        Si     0.904933333333     0.035300000000     0.116366666667     0          
O        O      0.859666666667     0.303166666667     0.280966666667     0          
O        O      0.923566666667     0.000000000000     0.250000000000     0          
O        O      0.916666666667     0.250000000000     0.267266666667     0          
T        Si     0.904933333333     0.298033333333     0.283033333333     0          
T        Si     0.666666666667     0.166666666667     0.250000000000     0          
O        O      0.807000000000     0.030166666667     0.280966666667     0          
O        O      0.743100000000     0.000000000000     0.250000000000     0          
O        O      0.750000000000     0.083333333333     0.267266666667     0          
T        Si     0.761733333333     0.035300000000     0.283033333333     0          
O        O      0.859666666667     0.030166666667     0.219033333333     0          
O        O      0.916666666667     0.083333333333     0.232733333333     0          
T        Si     0.904933333333     0.035300000000     0.216966666667     0          
O        O      0.807000000000     0.303166666667     0.219033333333     0          
O        O      0.750000000000     0.250000000000     0.232733333333     0          
T        Si     0.761733333333     0.298033333333     0.216966666667     0          
O        O      0.973666666667     0.196833333333     0.052366666667     0          
O        O      0.914166666667     0.193766666667     0.000000000000     0          
O        O      0.909766666667     0.166666666667     0.083333333333     0          
T        Si     0.928400000000     0.201966666667     0.050300000000     0          
T        Si     0.833333333333     0.000000000000     0.083333333333     0          
O        O      0.693000000000     0.136500000000     0.052366666667     0          
O        O      0.752500000000     0.139566666667     0.000000000000     0          
O        O      0.756900000000     0.166666666667     0.083333333333     0          
T        Si     0.738266666667     0.131366666667     0.050300000000     0          
O        O      0.973666666667     0.136500000000     0.114300000000     0          
O        O      0.914166666667     0.139566666667     0.166666666667     0          
T        Si     0.928400000000     0.131366666667     0.116366666667     0          
O        O      0.693000000000     0.196833333333     0.114300000000     0          
O        O      0.752500000000     0.193766666667     0.166666666667     0          
T        Si     0.738266666667     0.201966666667     0.116366666667     0          
O        O      0.693000000000     0.136500000000     0.280966666667     0          
O        O      0.756900000000     0.166666666667     0.250000000000     0          
T        Si     0.738266666667     0.131366666667     0.283033333333     0          
T        Si     0.833333333333     0.000000000000     0.250000000000     0          
O        O      0.973666666667     0.196833333333     0.280966666667     0          
O        O      0.909766666667     0.166666666667     0.250000000000     0          
T        Si     0.928400000000     0.201966666667     0.283033333333     0          
O        O      0.693000000000     0.196833333333     0.219033333333     0          
T        Si     0.738266666667     0.201966666667     0.216966666667     0          
O        O      0.973666666667     0.136500000000     0.219033333333     0          
T        Si     0.928400000000     0.131366666667     0.216966666667     0          
O        O      0.807000000000     0.030166666667     0.385700000000     0          
O        O      0.747500000000     0.027100000000     0.333333333333     0          
O        O      0.743100000000     0.000000000000     0.416666666667     0          
O        O      0.750000000000     0.083333333333     0.399400000000     0          
T        Si     0.761733333333     0.035300000000     0.383633333333     0          
T        Si     0.666666666667     0.166666666667     0.416666666667     0          
O        O      0.859666666667     0.303166666667     0.385700000000     0          
O        O      0.919166666667     0.306233333333     0.333333333333     0          
O        O      0.923566666667     0.000000000000     0.416666666667     0          
O        O      0.916666666667     0.250000000000     0.399400000000     0          
T        Si     0.904933333333     0.298033333333     0.383633333333     0          
O        O      0.807000000000     0.303166666667     0.447633333333     0          
O        O      0.747500000000     0.306233333333     0.500000000000     0          
O        O      0.750000000000     0.250000000000     0.433933333333     0          
T        Si     0.761733333333     0.298033333333     0.449700000000     0          
O        O      0.859666666667     0.030166666667     0.447633333333     0          
O        O      0.919166666667     0.027100000000     0.500000000000     0          
O        O      0.916666666667     0.083333333333     0.433933333333     0          
T        Si     0.904933333333     0.035300000000     0.449700000000     0          
O        O      0.859666666667     0.303166666667     0.614300000000     0          
O        O      0.923566666667     0.000000000000     0.583333333333     0          
O        O      0.916666666667     0.250000000000     0.600600000000     0          
T        Si     0.904933333333     0.298033333333     0.616366666667     0          
T        Si     0.666666666667     0.166666666667     0.583333333333     0          
O        O      0.807000000000     0.030166666667     0.614300000000     0          
O        O      0.743100000000     0.000000000000     0.583333333333     0          
O        O      0.750000000000     0.083333333333     0.600600000000     0          
T        Si     0.761733333333     0.035300000000     0.616366666667     0          
O        O      0.859666666667     0.030166666667     0.552366666667     0          
O        O      0.916666666667     0.083333333333     0.566066666667     0          
T        Si     0.904933333333     0.035300000000     0.550300000000     0          
O        O      0.807000000000     0.303166666667     0.552366666667     0          
O        O      0.750000000000     0.250000000000     0.566066666667     0          
T        Si     0.761733333333     0.298033333333     0.550300000000     0          
O        O      0.973666666667     0.196833333333     0.385700000000     0          
O        O      0.914166666667     0.193766666667     0.333333333333     0          
O        O      0.909766666667     0.166666666667     0.416666666667     0          
T        Si     0.928400000000     0.201966666667     0.383633333333     0          
T        Si     0.833333333333     0.000000000000     0.416666666667     0          
O        O      0.693000000000     0.136500000000     0.385700000000     0          
O        O      0.752500000000     0.139566666667     0.333333333333     0          
O        O      0.756900000000     0.166666666667     0.416666666667     0          
T        Si     0.738266666667     0.131366666667     0.383633333333     0          
O        O      0.973666666667     0.136500000000     0.447633333333     0          
O        O      0.914166666667     0.139566666667     0.500000000000     0          
T        Si     0.928400000000     0.131366666667     0.449700000000     0          
O        O      0.693000000000     0.196833333333     0.447633333333     0          
O        O      0.752500000000     0.193766666667     0.500000000000     0          
T        Si     0.738266666667     0.201966666667     0.449700000000     0          
O        O      0.693000000000     0.136500000000     0.614300000000     0          
O        O      0.756900000000     0.166666666667     0.583333333333     0          
T        Si     0.738266666667     0.131366666667     0.616366666667     0          
T        Si     0.833333333333     0.000000000000     0.583333333333     0          
O        O      0.973666666667     0.196833333333     0.614300000000     0          
O        O      0.909766666667     0.166666666667     0.583333333333     0          
T        Si     0.928400000000     0.201966666667     0.616366666667     0          
O        O      0.693000000000     0.196833333333     0.552366666667     0          
T        Si     0.738266666667     0.201966666667     0.550300000000     0          
O        O      0.973666666667     0.136500000000     0.552366666667     0          
T        Si     0.928400000000     0.131366666667     0.550300000000     0          
O        O      0.807000000000     0.030166666667     0.719033333333     0          
O        O      0.747500000000     0.027100000000     0.666666666667     0          
O        O      0.743100000000     0.000000000000     0.750000000000     0          
O        O      0.750000000000     0.083333333333     0.732733333333     0          
T        Si     0.761733333333     0.035300000000     0.716966666667     0          
T        Si     0.666666666667     0.166666666667     0.750000000000     0          
O        O      0.859666666667     0.303166666667     0.719033333333     0          
O        O      0.919166666667     0.306233333333     0.666666666667     0          
O        O      0.923566666667     0.000000000000     0.750000000000     0          
O        O      0.916666666667     0.250000000000     0.732733333333     0          
T        Si     0.904933333333     0.298033333333     0.716966666667     0          
O        O      0.807000000000     0.303166666667     0.780966666667     0          
O        O      0.747500000000     0.306233333333     0.833333333333     0          
O        O      0.750000000000     0.250000000000     0.767266666667     0          
T        Si     0.761733333333     0.298033333333     0.783033333333     0          
O        O      0.859666666667     0.030166666667     0.780966666667     0          
O        O      0.919166666667     0.027100000000     0.833333333333     0          
O        O      0.916666666667     0.083333333333     0.767266666667     0          
T        Si     0.904933333333     0.035300000000     0.783033333333     0          
O        O      0.859666666667     0.303166666667     0.947633333333     0          
O        O      0.923566666667     0.000000000000     0.916666666667     0          
O        O      0.916666666667     0.250000000000     0.933933333333     0          
T        Si     0.904933333333     0.298033333333     0.949700000000     0          
T        Si     0.666666666667     0.166666666667     0.916666666667     0          
O        O      0.807000000000     0.030166666667     0.947633333333     0          
O        O      0.743100000000     0.000000000000     0.916666666667     0          
O        O      0.750000000000     0.083333333333     0.933933333333     0          
T        Si     0.761733333333     0.035300000000     0.949700000000     0          
O        O      0.859666666667     0.030166666667     0.885700000000     0          
O        O      0.916666666667     0.083333333333     0.899400000000     0          
T        Si     0.904933333333     0.035300000000     0.883633333333     0          
O        O      0.807000000000     0.303166666667     0.885700000000     0          
O        O      0.750000000000     0.250000000000     0.899400000000     0          
T        Si     0.761733333333     0.298033333333     0.883633333333     0          
O        O      0.973666666667     0.196833333333     0.719033333333     0          
O        O      0.914166666667     0.193766666667     0.666666666667     0          
O        O      0.909766666667     0.166666666667     0.750000000000     0          
T        Si     0.928400000000     0.201966666667     0.716966666667     0          
T        Si     0.833333333333     0.000000000000     0.750000000000     0          
O        O      0.693000000000     0.136500000000     0.719033333333     0          
O        O      0.752500000000     0.139566666667     0.666666666667     0          
O        O      0.756900000000     0.166666666667     0.750000000000     0          
T        Si     0.738266666667     0.131366666667     0.716966666667     0          
O        O      0.973666666667     0.136500000000     0.780966666667     0          
O        O      0.914166666667     0.139566666667     0.833333333333     0          
T        Si     0.928400000000     0.131366666667     0.783033333333     0          
O        O      0.693000000000     0.196833333333     0.780966666667     0          
O        O      0.752500000000     0.193766666667     0.833333333333     0          
T        Si     0.738266666667     0.201966666667     0.783033333333     0          
O        O      0.693000000000     0.136500000000     0.947633333333     0          
O        O      0.756900000000     0.166666666667     0.916666666667     0          
T        Si     0.738266666667     0.131366666667     0.949700000000     0          
T        Si     0.833333333333     0.000000000000     0.916666666667     0          
O        O      0.973666666667     0.196833333333     0.947633333333     0          
O        O      0.909766666667     0.166666666667     0.916666666667     0          
T        Si     0.928400000000     0.201966666667     0.949700000000     0          
O        O      0.693000000000     0.196833333333     0.885700000000     0          
T        Si     0.738266666667     0.201966666667     0.883633333333     0          
O        O      0.973666666667     0.136500000000     0.885700000000     0          
T        Si     0.928400000000     0.131366666667     0.883633333333     0          
O        O      0.807000000000     0.363500000000     0.052366666667     0          
O        O      0.747500000000     0.360433333333     0.000000000000     0          
O        O      0.743100000000     0.333333333333     0.083333333333     0          
O        O      0.750000000000     0.416666666667     0.066066666667     0          
T        Si     0.761733333333     0.368633333333     0.050300000000     0          
T        Si     0.666666666667     0.500000000000     0.083333333333     0          
O        O      0.859666666667     0.636500000000     0.052366666667     0          
O        O      0.919166666667     0.639566666667     0.000000000000     0          
O        O      0.923566666667     0.333333333333     0.083333333333     0          
O        O      0.916666666667     0.583333333333     0.066066666667     0          
T        Si     0.904933333333     0.631366666667     0.050300000000     0          
O        O      0.807000000000     0.636500000000     0.114300000000     0          
O        O      0.747500000000     0.639566666667     0.166666666667     0          
O        O      0.750000000000     0.583333333333     0.100600000000     0          
T        Si     0.761733333333     0.631366666667     0.116366666667     0          
O        O      0.859666666667     0.363500000000     0.114300000000     0          
O        O      0.919166666667     0.360433333333     0.166666666667     0          
O        O      0.916666666667     0.416666666667     0.100600000000     0          
T        Si     0.904933333333     0.368633333333     0.116366666667     0          
O        O      0.859666666667     0.636500000000     0.280966666667     0          
O        O      0.923566666667     0.333333333333     0.250000000000     0          
O        O      0.916666666667     0.583333333333     0.267266666667     0          
T        Si     0.904933333333     0.631366666667     0.283033333333     0          
T        Si     0.666666666667     0.500000000000     0.250000000000     0          
O        O      0.807000000000     0.363500000000     0.280966666667     0          
O        O      0.743100000000     0.333333333333     0.250000000000     0          
O        O      0.750000000000     0.416666666667     0.267266666667     0          
T        Si     0.761733333333     0.368633333333     0.283033333333     0          
O        O      0.859666666667     0.363500000000     0.219033333333     0          
O        O      0.916666666667     0.416666666667     0.232733333333     0          
T        Si     0.904933333333     0.368633333333     0.216966666667     0          
O        O      0.807000000000     0.636500000000     0.219033333333     0          
O        O      0.750000000000     0.583333333333     0.232733333333     0          
T        Si     0.761733333333     0.631366666667     0.216966666667     0          
O        O      0.973666666667     0.530166666667     0.052366666667     0          
O        O      0.914166666667     0.527100000000     0.000000000000     0          
O        O      0.909766666667     0.500000000000     0.083333333333     0          
T        Si     0.928400000000     0.535300000000     0.050300000000     0          
T        Si     0.833333333333     0.333333333333     0.083333333333     0          
O        O      0.693000000000     0.469833333333     0.052366666667     0          
O        O      0.752500000000     0.472900000000     0.000000000000     0          
O        O      0.756900000000     0.500000000000     0.083333333333     0          
T        Si     0.738266666667     0.464700000000     0.050300000000     0          
O        O      0.973666666667     0.469833333333     0.114300000000     0          
O        O      0.914166666667     0.472900000000     0.166666666667     0          
T        Si     0.928400000000     0.464700000000     0.116366666667     0          
O        O      0.693000000000     0.530166666667     0.114300000000     0          
O        O      0.752500000000     0.527100000000     0.166666666667     0          
T        Si     0.738266666667     0.535300000000     0.116366666667     0          
O        O      0.693000000000     0.469833333333     0.280966666667     0          
O        O      0.756900000000     0.500000000000     0.250000000000     0          
T        Si     0.738266666667     0.464700000000     0.283033333333     0          
T        Si     0.833333333333     0.333333333333     0.250000000000     0          
O        O      0.973666666667     0.530166666667     0.280966666667     0          
O        O      0.909766666667     0.500000000000     0.250000000000     0          
T        Si     0.928400000000     0.535300000000     0.283033333333     0          
O        O      0.693000000000     0.530166666667     0.219033333333     0          
T        Si     0.738266666667     0.535300000000     0.216966666667     0          
O        O      0.973666666667     0.469833333333     0.219033333333     0          
T        Si     0.928400000000     0.464700000000     0.216966666667     0          
O        O      0.807000000000     0.363500000000     0.385700000000     0          
O        O      0.747500000000     0.360433333333     0.333333333333     0          
O        O      0.743100000000     0.333333333333     0.416666666667     0          
O        O      0.750000000000     0.416666666667     0.399400000000     0          
T        Si     0.761733333333     0.368633333333     0.383633333333     0          
T        Si     0.666666666667     0.500000000000     0.416666666667     0          
O        O      0.859666666667     0.636500000000     0.385700000000     0          
O        O      0.919166666667     0.639566666667     0.333333333333     0          
O        O      0.923566666667     0.333333333333     0.416666666667     0          
O        O      0.916666666667     0.583333333333     0.399400000000     0          
T        Si     0.904933333333     0.631366666667     0.383633333333     0          
O        O      0.807000000000     0.636500000000     0.447633333333     0          
O        O      0.747500000000     0.639566666667     0.500000000000     0          
O        O      0.750000000000     0.583333333333     0.433933333333     0          
T        Si     0.761733333333     0.631366666667     0.449700000000     0          
O        O      0.859666666667     0.363500000000     0.447633333333     0          
O        O      0.919166666667     0.360433333333     0.500000000000     0          
O        O      0.916666666667     0.416666666667     0.433933333333     0          
T        Si     0.904933333333     0.368633333333     0.449700000000     0          
O        O      0.859666666667     0.636500000000     0.614300000000     0          
O        O      0.923566666667     0.333333333333     0.583333333333     0          
O        O      0.916666666667     0.583333333333     0.600600000000     0          
T        Si     0.904933333333     0.631366666667     0.616366666667     0          
T        Si     0.666666666667     0.500000000000     0.583333333333     0          
O        O      0.807000000000     0.363500000000     0.614300000000     0          
O        O      0.743100000000     0.333333333333     0.583333333333     0          
O        O      0.750000000000     0.416666666667     0.600600000000     0          
T        Si     0.761733333333     0.368633333333     0.616366666667     0          
O        O      0.859666666667     0.363500000000     0.552366666667     0          
O        O      0.916666666667     0.416666666667     0.566066666667     0          
T        Si     0.904933333333     0.368633333333     0.550300000000     0          
O        O      0.807000000000     0.636500000000     0.552366666667     0          
O        O      0.750000000000     0.583333333333     0.566066666667     0          
T        Si     0.761733333333     0.631366666667     0.550300000000     0          
O        O      0.973666666667     0.530166666667     0.385700000000     0          
O        O      0.914166666667     0.527100000000     0.333333333333     0          
O        O      0.909766666667     0.500000000000     0.416666666667     0          
T        Si     0.928400000000     0.535300000000     0.383633333333     0          
T        Si     0.833333333333     0.333333333333     0.416666666667     0          
O        O      0.693000000000     0.469833333333     0.385700000000     0          
O        O      0.752500000000     0.472900000000     0.333333333333     0          
O        O      0.756900000000     0.500000000000     0.416666666667     0          
T        Si     0.738266666667     0.464700000000     0.383633333333     0          
O        O      0.973666666667     0.469833333333     0.447633333333     0          
O        O      0.914166666667     0.472900000000     0.500000000000     0          
T        Si     0.928400000000     0.464700000000     0.449700000000     0          
O        O      0.693000000000     0.530166666667     0.447633333333     0          
O        O      0.752500000000     0.527100000000     0.500000000000     0          
T        Si     0.738266666667     0.535300000000     0.449700000000     0          
O        O      0.693000000000     0.469833333333     0.614300000000     0          
O        O      0.756900000000     0.500000000000     0.583333333333     0          
T        Si     0.738266666667     0.464700000000     0.616366666667     0          
T        Si     0.833333333333     0.333333333333     0.583333333333     0          
O        O      0.973666666667     0.530166666667     0.614300000000     0          
O        O      0.909766666667     0.500000000000     0.583333333333     0          
T        Si     0.928400000000     0.535300000000     0.616366666667     0          
O        O      0.693000000000     0.530166666667     0.552366666667     0          
T        Si     0.738266666667     0.535300000000     0.550300000000     0          
O        O      0.973666666667     0.469833333333     0.552366666667     0          
T        Si     0.928400000000     0.464700000000     0.550300000000     0          
O        O      0.807000000000     0.363500000000     0.719033333333     0          
O        O      0.747500000000     0.360433333333     0.666666666667     0          
O        O      0.743100000000     0.333333333333     0.750000000000     0          
O        O      0.750000000000     0.416666666667     0.732733333333     0          
T        Si     0.761733333333     0.368633333333     0.716966666667     0          
T        Si     0.666666666667     0.500000000000     0.750000000000     0          
O        O      0.859666666667     0.636500000000     0.719033333333     0          
O        O      0.919166666667     0.639566666667     0.666666666667     0          
O        O      0.923566666667     0.333333333333     0.750000000000     0          
O        O      0.916666666667     0.583333333333     0.732733333333     0          
T        Si     0.904933333333     0.631366666667     0.716966666667     0          
O        O      0.807000000000     0.636500000000     0.780966666667     0          
O        O      0.747500000000     0.639566666667     0.833333333333     0          
O        O      0.750000000000     0.583333333333     0.767266666667     0          
T        Si     0.761733333333     0.631366666667     0.783033333333     0          
O        O      0.859666666667     0.363500000000     0.780966666667     0          
O        O      0.919166666667     0.360433333333     0.833333333333     0          
O        O      0.916666666667     0.416666666667     0.767266666667     0          
T        Si     0.904933333333     0.368633333333     0.783033333333     0          
O        O      0.859666666667     0.636500000000     0.947633333333     0          
O        O      0.923566666667     0.333333333333     0.916666666667     0          
O        O      0.916666666667     0.583333333333     0.933933333333     0          
T        Si     0.904933333333     0.631366666667     0.949700000000     0          
T        Si     0.666666666667     0.500000000000     0.916666666667     0          
O        O      0.807000000000     0.363500000000     0.947633333333     0          
O        O      0.743100000000     0.333333333333     0.916666666667     0          
O        O      0.750000000000     0.416666666667     0.933933333333     0          
T        Si     0.761733333333     0.368633333333     0.949700000000     0          
O        O      0.859666666667     0.363500000000     0.885700000000     0          
O        O      0.916666666667     0.416666666667     0.899400000000     0          
T        Si     0.904933333333     0.368633333333     0.883633333333     0          
O        O      0.807000000000     0.636500000000     0.885700000000     0          
O        O      0.750000000000     0.583333333333     0.899400000000     0          
T        Si     0.761733333333     0.631366666667     0.883633333333     0          
O        O      0.973666666667     0.530166666667     0.719033333333     0          
O        O      0.914166666667     0.527100000000     0.666666666667     0          
O        O      0.909766666667     0.500000000000     0.750000000000     0          
T        Si     0.928400000000     0.535300000000     0.716966666667     0          
T        Si     0.833333333333     0.333333333333     0.750000000000     0          
O        O      0.693000000000     0.469833333333     0.719033333333     0          
O        O      0.752500000000     0.472900000000     0.666666666667     0          
O        O      0.756900000000     0.500000000000     0.750000000000     0          
T        Si     0.738266666667     0.464700000000     0.716966666667     0          
O        O      0.973666666667     0.469833333333     0.780966666667     0          
O        O      0.914166666667     0.472900000000     0.833333333333     0          
T        Si     0.928400000000     0.464700000000     0.783033333333     0          
O        O      0.693000000000     0.530166666667     0.780966666667     0          
O        O      0.752500000000     0.527100000000     0.833333333333     0          
T        Si     0.738266666667     0.535300000000     0.783033333333     0          
O        O      0.693000000000     0.469833333333     0.947633333333     0          
O        O      0.756900000000     0.500000000000     0.916666666667     0          
T        Si     0.738266666667     0.464700000000     0.949700000000     0          
T        Si     0.833333333333     0.333333333333     0.916666666667     0          
O        O      0.973666666667     0.530166666667     0.947633333333     0          
O        O      0.909766666667     0.500000000000     0.916666666667     0          
T        Si     0.928400000000     0.535300000000     0.949700000000     0          
O        O      0.693000000000     0.530166666667     0.885700000000     0          
T        Si     0.738266666667     0.535300000000     0.883633333333     0          
O        O      0.973666666667     0.469833333333     0.885700000000     0          
T        Si     0.928400000000     0.464700000000     0.883633333333     0          
O        O      0.807000000000     0.696833333333     0.052366666667     0          
O        O      0.747500000000     0.693766666667     0.000000000000     0          
O        O      0.743100000000     0.666666666667     0.083333333333     0          
O        O      0.750000000000     0.750000000000     0.066066666667     0          
T        Si     0.761733333333     0.701966666667     0.050300000000     0          
T        Si     0.666666666667     0.833333333333     0.083333333333     0          
O        O      0.859666666667     0.969833333333     0.052366666667     0          
O        O      0.919166666667     0.972900000000     0.000000000000     0          
O        O      0.923566666667     0.666666666667     0.083333333333     0          
O        O      0.916666666667     0.916666666667     0.066066666667     0          
T        Si     0.904933333333     0.964700000000     0.050300000000     0          
O        O      0.807000000000     0.969833333333     0.114300000000     0          
O        O      0.747500000000     0.972900000000     0.166666666667     0          
O        O      0.750000000000     0.916666666667     0.100600000000     0          
T        Si     0.761733333333     0.964700000000     0.116366666667     0          
O        O      0.859666666667     0.696833333333     0.114300000000     0          
O        O      0.919166666667     0.693766666667     0.166666666667     0          
O        O      0.916666666667     0.750000000000     0.100600000000     0          
T        Si     0.904933333333     0.701966666667     0.116366666667     0          
O        O      0.859666666667     0.969833333333     0.280966666667     0          
O        O      0.923566666667     0.666666666667     0.250000000000     0          
O        O      0.916666666667     0.916666666667     0.267266666667     0          
T        Si     0.904933333333     0.964700000000     0.283033333333     0          
T        Si     0.666666666667     0.833333333333     0.250000000000     0          
O        O      0.807000000000     0.696833333333     0.280966666667     0          
O        O      0.743100000000     0.666666666667     0.250000000000     0          
O        O      0.750000000000     0.750000000000     0.267266666667     0          
T        Si     0.761733333333     0.701966666667     0.283033333333     0          
O        O      0.859666666667     0.696833333333     0.219033333333     0          
O        O      0.916666666667     0.750000000000     0.232733333333     0          
T        Si     0.904933333333     0.701966666667     0.216966666667     0          
O        O      0.807000000000     0.969833333333     0.219033333333     0          
O        O      0.750000000000     0.916666666667     0.232733333333     0          
T        Si     0.761733333333     0.964700000000     0.216966666667     0          
O        O      0.973666666667     0.863500000000     0.052366666667     0          
O        O      0.914166666667     0.860433333333     0.000000000000     0          
O        O      0.909766666667     0.833333333333     0.083333333333     0          
T        Si     0.928400000000     0.868633333333     0.050300000000     0          
T        Si     0.833333333333     0.666666666667     0.083333333333     0          
O        O      0.693000000000     0.803166666667     0.052366666667     0          
O        O      0.752500000000     0.806233333333     0.000000000000     0          
O        O      0.756900000000     0.833333333333     0.083333333333     0          
T        Si     0.738266666667     0.798033333333     0.050300000000     0          
O        O      0.973666666667     0.803166666667     0.114300000000     0          
O        O      0.914166666667     0.806233333333     0.166666666667     0          
T        Si     0.928400000000     0.798033333333     0.116366666667     0          
O        O      0.693000000000     0.863500000000     0.114300000000     0          
O        O      0.752500000000     0.860433333333     0.166666666667     0          
T        Si     0.738266666667     0.868633333333     0.116366666667     0          
O        O      0.693000000000     0.803166666667     0.280966666667     0          
O        O      0.756900000000     0.833333333333     0.250000000000     0          
T        Si     0.738266666667     0.798033333333     0.283033333333     0          
T        Si     0.833333333333     0.666666666667     0.250000000000     0          
O        O      0.973666666667     0.863500000000     0.280966666667     0          
O        O      0.909766666667     0.833333333333     0.250000000000     0          
T        Si     0.928400000000     0.868633333333     0.283033333333     0          
O        O      0.693000000000     0.863500000000     0.219033333333     0          
T        Si     0.738266666667     0.868633333333     0.216966666667     0          
O        O      0.973666666667     0.803166666667     0.219033333333     0          
T        Si     0.928400000000     0.798033333333     0.216966666667     0          
O        O      0.807000000000     0.696833333333     0.385700000000     0          
O        O      0.747500000000     0.693766666667     0.333333333333     0          
O        O      0.743100000000     0.666666666667     0.416666666667     0          
O        O      0.750000000000     0.750000000000     0.399400000000     0          
T        Si     0.761733333333     0.701966666667     0.383633333333     0          
T        Si     0.666666666667     0.833333333333     0.416666666667     0          
O        O      0.859666666667     0.969833333333     0.385700000000     0          
O        O      0.919166666667     0.972900000000     0.333333333333     0          
O        O      0.923566666667     0.666666666667     0.416666666667     0          
O        O      0.916666666667     0.916666666667     0.399400000000     0          
T        Si     0.904933333333     0.964700000000     0.383633333333     0          
O        O      0.807000000000     0.969833333333     0.447633333333     0          
O        O      0.747500000000     0.972900000000     0.500000000000     0          
O        O      0.750000000000     0.916666666667     0.433933333333     0          
T        Si     0.761733333333     0.964700000000     0.449700000000     0          
O        O      0.859666666667     0.696833333333     0.447633333333     0          
O        O      0.919166666667     0.693766666667     0.500000000000     0          
O        O      0.916666666667     0.750000000000     0.433933333333     0          
T        Si     0.904933333333     0.701966666667     0.449700000000     0          
O        O      0.859666666667     0.969833333333     0.614300000000     0          
O        O      0.923566666667     0.666666666667     0.583333333333     0          
O        O      0.916666666667     0.916666666667     0.600600000000     0          
T        Si     0.904933333333     0.964700000000     0.616366666667     0          
T        Si     0.666666666667     0.833333333333     0.583333333333     0          
O        O      0.807000000000     0.696833333333     0.614300000000     0          
O        O      0.743100000000     0.666666666667     0.583333333333     0          
O        O      0.750000000000     0.750000000000     0.600600000000     0          
T        Si     0.761733333333     0.701966666667     0.616366666667     0          
O        O      0.859666666667     0.696833333333     0.552366666667     0          
O        O      0.916666666667     0.750000000000     0.566066666667     0          
T        Si     0.904933333333     0.701966666667     0.550300000000     0          
O        O      0.807000000000     0.969833333333     0.552366666667     0          
O        O      0.750000000000     0.916666666667     0.566066666667     0          
T        Si     0.761733333333     0.964700000000     0.550300000000     0          
O        O      0.973666666667     0.863500000000     0.385700000000     0          
O        O      0.914166666667     0.860433333333     0.333333333333     0          
O        O      0.909766666667     0.833333333333     0.416666666667     0          
T        Si     0.928400000000     0.868633333333     0.383633333333     0          
T        Si     0.833333333333     0.666666666667     0.416666666667     0          
O        O      0.693000000000     0.803166666667     0.385700000000     0          
O        O      0.752500000000     0.806233333333     0.333333333333     0          
O        O      0.756900000000     0.833333333333     0.416666666667     0          
T        Si     0.738266666667     0.798033333333     0.383633333333     0          
O        O      0.973666666667     0.803166666667     0.447633333333     0          
O        O      0.914166666667     0.806233333333     0.500000000000     0          
T        Si     0.928400000000     0.798033333333     0.449700000000     0          
O        O      0.693000000000     0.863500000000     0.447633333333     0          
O        O      0.752500000000     0.860433333333     0.500000000000     0          
T        Si     0.738266666667     0.868633333333     0.449700000000     0          
O        O      0.693000000000     0.803166666667     0.614300000000     0          
O        O      0.756900000000     0.833333333333     0.583333333333     0          
T        Si     0.738266666667     0.798033333333     0.616366666667     0          
T        Si     0.833333333333     0.666666666667     0.583333333333     0          
O        O      0.973666666667     0.863500000000     0.614300000000     0          
O        O      0.909766666667     0.833333333333     0.583333333333     0          
T        Si     0.928400000000     0.868633333333     0.616366666667     0          
O        O      0.693000000000     0.863500000000     0.552366666667     0          
T        Si     0.738266666667     0.868633333333     0.550300000000     0          
O        O      0.973666666667     0.803166666667     0.552366666667     0          
T        Si     0.928400000000     0.798033333333     0.550300000000     0          
O        O      0.807000000000     0.696833333333     0.719033333333     0          
O        O      0.747500000000     0.693766666667     0.666666666667     0          
O        O      0.743100000000     0.666666666667     0.750000000000     0          
O        O      0.750000000000     0.750000000000     0.732733333333     0          
T        Si     0.761733333333     0.701966666667     0.716966666667     0          
T        Si     0.666666666667     0.833333333333     0.750000000000     0          
O        O      0.859666666667     0.969833333333     0.719033333333     0          
O        O      0.919166666667     0.972900000000     0.666666666667     0          
O        O      0.923566666667     0.666666666667     0.750000000000     0          
O        O      0.916666666667     0.916666666667     0.732733333333     0          
T        Si     0.904933333333     0.964700000000     0.716966666667     0          
O        O      0.807000000000     0.969833333333     0.780966666667     0          
O        O      0.747500000000     0.972900000000     0.833333333333     0          
O        O      0.750000000000     0.916666666667     0.767266666667     0          
T        Si     0.761733333333     0.964700000000     0.783033333333     0          
O        O      0.859666666667     0.696833333333     0.780966666667     0          
O        O      0.919166666667     0.693766666667     0.833333333333     0          
O        O      0.916666666667     0.750000000000     0.767266666667     0          
T        Si     0.904933333333     0.701966666667     0.783033333333     0          
O        O      0.859666666667     0.969833333333     0.947633333333     0          
O        O      0.923566666667     0.666666666667     0.916666666667     0          
O        O      0.916666666667     0.916666666667     0.933933333333     0          
T        Si     0.904933333333     0.964700000000     0.949700000000     0          
T        Si     0.666666666667     0.833333333333     0.916666666667     0          
O        O      0.807000000000     0.696833333333     0.947633333333     0          
O        O      0.743100000000     0.666666666667     0.916666666667     0          
O        O      0.750000000000     0.750000000000     0.933933333333     0          
T        Si     0.761733333333     0.701966666667     0.949700000000     0          
O        O      0.859666666667     0.696833333333     0.885700000000     0          
O        O      0.916666666667     0.750000000000     0.899400000000     0          
T        Si     0.904933333333     0.701966666667     0.883633333333     0          
O        O      0.807000000000     0.969833333333     0.885700000000     0          
O        O      0.750000000000     0.916666666667     0.899400000000     0          
T        Si     0.761733333333     0.964700000000     0.883633333333     0          
O        O      0.973666666667     0.863500000000     0.719033333333     0          
O        O      0.914166666667     0.860433333333     0.666666666667     0          
O        O      0.909766666667     0.833333333333     0.750000000000     0          
T        Si     0.928400000000     0.868633333333     0.716966666667     0          
T        Si     0.833333333333     0.666666666667     0.750000000000     0          
O        O      0.693000000000     0.803166666667     0.719033333333     0          
O        O      0.752500000000     0.806233333333     0.666666666667     0          
O        O      0.756900000000     0.833333333333     0.750000000000     0          
T        Si     0.738266666667     0.798033333333     0.716966666667     0          
O        O      0.973666666667     0.803166666667     0.780966666667     0          
O        O      0.914166666667     0.806233333333     0.833333333333     0          
T        Si     0.928400000000     0.798033333333     0.783033333333     0          
O        O      0.693000000000     0.863500000000     0.780966666667     0          
O        O      0.752500000000     0.860433333333     0.833333333333     0          
T        Si     0.738266666667     0.868633333333     0.783033333333     0          
O        O      0.693000000000     0.803166666667     0.947633333333     0          
O        O      0.756900000000     0.833333333333     0.916666666667     0          
T        Si     0.738266666667     0.798033333333     0.949700000000     0          
T        Si     0.833333333333     0.666666666667     0.916666666667     0          
O        O      0.973666666667     0.863500000000     0.947633333333     0          
O        O      0.909766666667     0.833333333333     0.916666666667     0          
T        Si     0.928400000000     0.868633333333     0.949700000000     0          
O        O      0.693000000000     0.863500000000     0.885700000000     0          
T        Si     0.738266666667     0.868633333333     0.883633333333     0          
O        O      0.973666666667     0.803166666667     0.885700000000     0          
T        Si     0.928400000000     0.798033333333     0.883633333333     0          


