data_zeolite

_audit_creation_method RASPA-1.0
_audit_creation_date 2021-6-7
_audit_author_name ''

_cell_length_a    9.89
_cell_length_b    14.064
_cell_length_c    14.046
_cell_angle_alpha 90
_cell_angle_beta  90
_cell_angle_gamma 90
_cell_volume      23444.4

_symmetry_cell_setting          orthorhombic
_symmetry_space_group_name_Hall 'P 1'
_symmetry_space_group_name_H-M  'P 1'
_symmetry_Int_Tables_number     1

_symmetry_equiv_pos_as_xyz 'x,y,z'

loop_
_atom_site_label
_atom_site_type_symbol
_atom_site_fract_x
_atom_site_fract_y
_atom_site_fract_z
_atom_site_charge
T        Si     0.052333333333     0.054200000000     0.490800000000     0          
T        Si     0.051766666667     0.131750000000     0.070100000000     0          
T        Si     0.281000000000     0.445800000000     0.240800000000     0          
T        Si     0.281566666667     0.368250000000     0.320100000000     0          
T        Si     0.052333333333     0.445800000000     0.009200000000     0          
T        Si     0.051766666667     0.368250000000     0.429900000000     0          
T        Si     0.281000000000     0.054200000000     0.259200000000     0          
T        Si     0.281566666667     0.131750000000     0.179900000000     0          
T        Si     0.281000000000     0.445800000000     0.009200000000     0          
T        Si     0.281566666667     0.368250000000     0.429900000000     0          
T        Si     0.052333333333     0.054200000000     0.259200000000     0          
T        Si     0.051766666667     0.131750000000     0.179900000000     0          
T        Si     0.281000000000     0.054200000000     0.490800000000     0          
T        Si     0.281566666667     0.131750000000     0.070100000000     0          
T        Si     0.052333333333     0.445800000000     0.240800000000     0          
T        Si     0.051766666667     0.368250000000     0.320100000000     0          
T        Si     0.219000000000     0.304200000000     0.490800000000     0          
T        Si     0.218433333333     0.381750000000     0.070100000000     0          
T        Si     0.114333333333     0.195800000000     0.240800000000     0          
T        Si     0.114900000000     0.118250000000     0.320100000000     0          
T        Si     0.219000000000     0.195800000000     0.009200000000     0          
T        Si     0.218433333333     0.118250000000     0.429900000000     0          
T        Si     0.114333333333     0.304200000000     0.259200000000     0          
T        Si     0.114900000000     0.381750000000     0.179900000000     0          
T        Si     0.114333333333     0.195800000000     0.009200000000     0          
T        Si     0.114900000000     0.118250000000     0.429900000000     0          
T        Si     0.219000000000     0.304200000000     0.259200000000     0          
T        Si     0.218433333333     0.381750000000     0.179900000000     0          
T        Si     0.114333333333     0.304200000000     0.490800000000     0          
T        Si     0.114900000000     0.381750000000     0.070100000000     0          
T        Si     0.219000000000     0.195800000000     0.240800000000     0          
T        Si     0.218433333333     0.118250000000     0.320100000000     0          
T        Si     0.052333333333     0.054200000000     0.990800000000     0          
T        Si     0.051766666667     0.131750000000     0.570100000000     0          
T        Si     0.281000000000     0.445800000000     0.740800000000     0          
T        Si     0.281566666667     0.368250000000     0.820100000000     0          
T        Si     0.052333333333     0.445800000000     0.509200000000     0          
T        Si     0.051766666667     0.368250000000     0.929900000000     0          
T        Si     0.281000000000     0.054200000000     0.759200000000     0          
T        Si     0.281566666667     0.131750000000     0.679900000000     0          
T        Si     0.281000000000     0.445800000000     0.509200000000     0          
T        Si     0.281566666667     0.368250000000     0.929900000000     0          
T        Si     0.052333333333     0.054200000000     0.759200000000     0          
T        Si     0.051766666667     0.131750000000     0.679900000000     0          
T        Si     0.281000000000     0.054200000000     0.990800000000     0          
T        Si     0.281566666667     0.131750000000     0.570100000000     0          
T        Si     0.052333333333     0.445800000000     0.740800000000     0          
T        Si     0.051766666667     0.368250000000     0.820100000000     0          
T        Si     0.219000000000     0.304200000000     0.990800000000     0          
T        Si     0.218433333333     0.381750000000     0.570100000000     0          
T        Si     0.114333333333     0.195800000000     0.740800000000     0          
T        Si     0.114900000000     0.118250000000     0.820100000000     0          
T        Si     0.219000000000     0.195800000000     0.509200000000     0          
T        Si     0.218433333333     0.118250000000     0.929900000000     0          
T        Si     0.114333333333     0.304200000000     0.759200000000     0          
T        Si     0.114900000000     0.381750000000     0.679900000000     0          
T        Si     0.114333333333     0.195800000000     0.509200000000     0          
T        Si     0.114900000000     0.118250000000     0.929900000000     0          
T        Si     0.219000000000     0.304200000000     0.759200000000     0          
T        Si     0.218433333333     0.381750000000     0.679900000000     0          
T        Si     0.114333333333     0.304200000000     0.990800000000     0          
T        Si     0.114900000000     0.381750000000     0.570100000000     0          
T        Si     0.219000000000     0.195800000000     0.740800000000     0          
T        Si     0.218433333333     0.118250000000     0.820100000000     0          
T        Si     0.052333333333     0.554200000000     0.490800000000     0          
T        Si     0.051766666667     0.631750000000     0.070100000000     0          
T        Si     0.281000000000     0.945800000000     0.240800000000     0          
T        Si     0.281566666667     0.868250000000     0.320100000000     0          
T        Si     0.052333333333     0.945800000000     0.009200000000     0          
T        Si     0.051766666667     0.868250000000     0.429900000000     0          
T        Si     0.281000000000     0.554200000000     0.259200000000     0          
T        Si     0.281566666667     0.631750000000     0.179900000000     0          
T        Si     0.281000000000     0.945800000000     0.009200000000     0          
T        Si     0.281566666667     0.868250000000     0.429900000000     0          
T        Si     0.052333333333     0.554200000000     0.259200000000     0          
T        Si     0.051766666667     0.631750000000     0.179900000000     0          
T        Si     0.281000000000     0.554200000000     0.490800000000     0          
T        Si     0.281566666667     0.631750000000     0.070100000000     0          
T        Si     0.052333333333     0.945800000000     0.240800000000     0          
T        Si     0.051766666667     0.868250000000     0.320100000000     0          
T        Si     0.219000000000     0.804200000000     0.490800000000     0          
T        Si     0.218433333333     0.881750000000     0.070100000000     0          
T        Si     0.114333333333     0.695800000000     0.240800000000     0          
T        Si     0.114900000000     0.618250000000     0.320100000000     0          
T        Si     0.219000000000     0.695800000000     0.009200000000     0          
T        Si     0.218433333333     0.618250000000     0.429900000000     0          
T        Si     0.114333333333     0.804200000000     0.259200000000     0          
T        Si     0.114900000000     0.881750000000     0.179900000000     0          
T        Si     0.114333333333     0.695800000000     0.009200000000     0          
T        Si     0.114900000000     0.618250000000     0.429900000000     0          
T        Si     0.219000000000     0.804200000000     0.259200000000     0          
T        Si     0.218433333333     0.881750000000     0.179900000000     0          
T        Si     0.114333333333     0.804200000000     0.490800000000     0          
T        Si     0.114900000000     0.881750000000     0.070100000000     0          
T        Si     0.219000000000     0.695800000000     0.240800000000     0          
T        Si     0.218433333333     0.618250000000     0.320100000000     0          
T        Si     0.052333333333     0.554200000000     0.990800000000     0          
T        Si     0.051766666667     0.631750000000     0.570100000000     0          
T        Si     0.281000000000     0.945800000000     0.740800000000     0          
T        Si     0.281566666667     0.868250000000     0.820100000000     0          
T        Si     0.052333333333     0.945800000000     0.509200000000     0          
T        Si     0.051766666667     0.868250000000     0.929900000000     0          
T        Si     0.281000000000     0.554200000000     0.759200000000     0          
T        Si     0.281566666667     0.631750000000     0.679900000000     0          
T        Si     0.281000000000     0.945800000000     0.509200000000     0          
T        Si     0.281566666667     0.868250000000     0.929900000000     0          
T        Si     0.052333333333     0.554200000000     0.759200000000     0          
T        Si     0.051766666667     0.631750000000     0.679900000000     0          
T        Si     0.281000000000     0.554200000000     0.990800000000     0          
T        Si     0.281566666667     0.631750000000     0.570100000000     0          
T        Si     0.052333333333     0.945800000000     0.740800000000     0          
T        Si     0.051766666667     0.868250000000     0.820100000000     0          
T        Si     0.219000000000     0.804200000000     0.990800000000     0          
T        Si     0.218433333333     0.881750000000     0.570100000000     0          
T        Si     0.114333333333     0.695800000000     0.740800000000     0          
T        Si     0.114900000000     0.618250000000     0.820100000000     0          
T        Si     0.219000000000     0.695800000000     0.509200000000     0          
T        Si     0.218433333333     0.618250000000     0.929900000000     0          
T        Si     0.114333333333     0.804200000000     0.759200000000     0          
T        Si     0.114900000000     0.881750000000     0.679900000000     0          
T        Si     0.114333333333     0.695800000000     0.509200000000     0          
T        Si     0.114900000000     0.618250000000     0.929900000000     0          
T        Si     0.219000000000     0.804200000000     0.759200000000     0          
T        Si     0.218433333333     0.881750000000     0.679900000000     0          
T        Si     0.114333333333     0.804200000000     0.990800000000     0          
T        Si     0.114900000000     0.881750000000     0.570100000000     0          
T        Si     0.219000000000     0.695800000000     0.740800000000     0          
T        Si     0.218433333333     0.618250000000     0.820100000000     0          
T        Si     0.385666666667     0.054200000000     0.490800000000     0          
T        Si     0.385100000000     0.131750000000     0.070100000000     0          
T        Si     0.614333333333     0.445800000000     0.240800000000     0          
T        Si     0.614900000000     0.368250000000     0.320100000000     0          
T        Si     0.385666666667     0.445800000000     0.009200000000     0          
T        Si     0.385100000000     0.368250000000     0.429900000000     0          
T        Si     0.614333333333     0.054200000000     0.259200000000     0          
T        Si     0.614900000000     0.131750000000     0.179900000000     0          
T        Si     0.614333333333     0.445800000000     0.009200000000     0          
T        Si     0.614900000000     0.368250000000     0.429900000000     0          
T        Si     0.385666666667     0.054200000000     0.259200000000     0          
T        Si     0.385100000000     0.131750000000     0.179900000000     0          
T        Si     0.614333333333     0.054200000000     0.490800000000     0          
T        Si     0.614900000000     0.131750000000     0.070100000000     0          
T        Si     0.385666666667     0.445800000000     0.240800000000     0          
T        Si     0.385100000000     0.368250000000     0.320100000000     0          
T        Si     0.552333333333     0.304200000000     0.490800000000     0          
T        Si     0.551766666667     0.381750000000     0.070100000000     0          
T        Si     0.447666666667     0.195800000000     0.240800000000     0          
T        Si     0.448233333333     0.118250000000     0.320100000000     0          
T        Si     0.552333333333     0.195800000000     0.009200000000     0          
T        Si     0.551766666667     0.118250000000     0.429900000000     0          
T        Si     0.447666666667     0.304200000000     0.259200000000     0          
T        Si     0.448233333333     0.381750000000     0.179900000000     0          
T        Si     0.447666666667     0.195800000000     0.009200000000     0          
T        Si     0.448233333333     0.118250000000     0.429900000000     0          
T        Si     0.552333333333     0.304200000000     0.259200000000     0          
T        Si     0.551766666667     0.381750000000     0.179900000000     0          
T        Si     0.447666666667     0.304200000000     0.490800000000     0          
T        Si     0.448233333333     0.381750000000     0.070100000000     0          
T        Si     0.552333333333     0.195800000000     0.240800000000     0          
T        Si     0.551766666667     0.118250000000     0.320100000000     0          
T        Si     0.385666666667     0.054200000000     0.990800000000     0          
T        Si     0.385100000000     0.131750000000     0.570100000000     0          
T        Si     0.614333333333     0.445800000000     0.740800000000     0          
T        Si     0.614900000000     0.368250000000     0.820100000000     0          
T        Si     0.385666666667     0.445800000000     0.509200000000     0          
T        Si     0.385100000000     0.368250000000     0.929900000000     0          
T        Si     0.614333333333     0.054200000000     0.759200000000     0          
T        Si     0.614900000000     0.131750000000     0.679900000000     0          
T        Si     0.614333333333     0.445800000000     0.509200000000     0          
T        Si     0.614900000000     0.368250000000     0.929900000000     0          
T        Si     0.385666666667     0.054200000000     0.759200000000     0          
T        Si     0.385100000000     0.131750000000     0.679900000000     0          
T        Si     0.614333333333     0.054200000000     0.990800000000     0          
T        Si     0.614900000000     0.131750000000     0.570100000000     0          
T        Si     0.385666666667     0.445800000000     0.740800000000     0          
T        Si     0.385100000000     0.368250000000     0.820100000000     0          
T        Si     0.552333333333     0.304200000000     0.990800000000     0          
T        Si     0.551766666667     0.381750000000     0.570100000000     0          
T        Si     0.447666666667     0.195800000000     0.740800000000     0          
T        Si     0.448233333333     0.118250000000     0.820100000000     0          
T        Si     0.552333333333     0.195800000000     0.509200000000     0          
T        Si     0.551766666667     0.118250000000     0.929900000000     0          
T        Si     0.447666666667     0.304200000000     0.759200000000     0          
T        Si     0.448233333333     0.381750000000     0.679900000000     0          
T        Si     0.447666666667     0.195800000000     0.509200000000     0          
T        Si     0.448233333333     0.118250000000     0.929900000000     0          
T        Si     0.552333333333     0.304200000000     0.759200000000     0          
T        Si     0.551766666667     0.381750000000     0.679900000000     0          
T        Si     0.447666666667     0.304200000000     0.990800000000     0          
T        Si     0.448233333333     0.381750000000     0.570100000000     0          
T        Si     0.552333333333     0.195800000000     0.740800000000     0          
T        Si     0.551766666667     0.118250000000     0.820100000000     0          
T        Si     0.385666666667     0.554200000000     0.490800000000     0          
T        Si     0.385100000000     0.631750000000     0.070100000000     0          
T        Si     0.614333333333     0.945800000000     0.240800000000     0          
T        Si     0.614900000000     0.868250000000     0.320100000000     0          
T        Si     0.385666666667     0.945800000000     0.009200000000     0          
T        Si     0.385100000000     0.868250000000     0.429900000000     0          
T        Si     0.614333333333     0.554200000000     0.259200000000     0          
T        Si     0.614900000000     0.631750000000     0.179900000000     0          
T        Si     0.614333333333     0.945800000000     0.009200000000     0          
T        Si     0.614900000000     0.868250000000     0.429900000000     0          
T        Si     0.385666666667     0.554200000000     0.259200000000     0          
T        Si     0.385100000000     0.631750000000     0.179900000000     0          
T        Si     0.614333333333     0.554200000000     0.490800000000     0          
T        Si     0.614900000000     0.631750000000     0.070100000000     0          
T        Si     0.385666666667     0.945800000000     0.240800000000     0          
T        Si     0.385100000000     0.868250000000     0.320100000000     0          
T        Si     0.552333333333     0.804200000000     0.490800000000     0          
T        Si     0.551766666667     0.881750000000     0.070100000000     0          
T        Si     0.447666666667     0.695800000000     0.240800000000     0          
T        Si     0.448233333333     0.618250000000     0.320100000000     0          
T        Si     0.552333333333     0.695800000000     0.009200000000     0          
T        Si     0.551766666667     0.618250000000     0.429900000000     0          
T        Si     0.447666666667     0.804200000000     0.259200000000     0          
T        Si     0.448233333333     0.881750000000     0.179900000000     0          
T        Si     0.447666666667     0.695800000000     0.009200000000     0          
T        Si     0.448233333333     0.618250000000     0.429900000000     0          
T        Si     0.552333333333     0.804200000000     0.259200000000     0          
T        Si     0.551766666667     0.881750000000     0.179900000000     0          
T        Si     0.447666666667     0.804200000000     0.490800000000     0          
T        Si     0.448233333333     0.881750000000     0.070100000000     0          
T        Si     0.552333333333     0.695800000000     0.240800000000     0          
T        Si     0.551766666667     0.618250000000     0.320100000000     0          
T        Si     0.385666666667     0.554200000000     0.990800000000     0          
T        Si     0.385100000000     0.631750000000     0.570100000000     0          
T        Si     0.614333333333     0.945800000000     0.740800000000     0          
T        Si     0.614900000000     0.868250000000     0.820100000000     0          
T        Si     0.385666666667     0.945800000000     0.509200000000     0          
T        Si     0.385100000000     0.868250000000     0.929900000000     0          
T        Si     0.614333333333     0.554200000000     0.759200000000     0          
T        Si     0.614900000000     0.631750000000     0.679900000000     0          
T        Si     0.614333333333     0.945800000000     0.509200000000     0          
T        Si     0.614900000000     0.868250000000     0.929900000000     0          
T        Si     0.385666666667     0.554200000000     0.759200000000     0          
T        Si     0.385100000000     0.631750000000     0.679900000000     0          
T        Si     0.614333333333     0.554200000000     0.990800000000     0          
T        Si     0.614900000000     0.631750000000     0.570100000000     0          
T        Si     0.385666666667     0.945800000000     0.740800000000     0          
T        Si     0.385100000000     0.868250000000     0.820100000000     0          
T        Si     0.552333333333     0.804200000000     0.990800000000     0          
T        Si     0.551766666667     0.881750000000     0.570100000000     0          
T        Si     0.447666666667     0.695800000000     0.740800000000     0          
T        Si     0.448233333333     0.618250000000     0.820100000000     0          
T        Si     0.552333333333     0.695800000000     0.509200000000     0          
T        Si     0.551766666667     0.618250000000     0.929900000000     0          
T        Si     0.447666666667     0.804200000000     0.759200000000     0          
T        Si     0.448233333333     0.881750000000     0.679900000000     0          
T        Si     0.447666666667     0.695800000000     0.509200000000     0          
T        Si     0.448233333333     0.618250000000     0.929900000000     0          
T        Si     0.552333333333     0.804200000000     0.759200000000     0          
T        Si     0.551766666667     0.881750000000     0.679900000000     0          
T        Si     0.447666666667     0.804200000000     0.990800000000     0          
T        Si     0.448233333333     0.881750000000     0.570100000000     0          
T        Si     0.552333333333     0.695800000000     0.740800000000     0          
T        Si     0.551766666667     0.618250000000     0.820100000000     0          
T        Si     0.719000000000     0.054200000000     0.490800000000     0          
T        Si     0.718433333333     0.131750000000     0.070100000000     0          
T        Si     0.947666666667     0.445800000000     0.240800000000     0          
T        Si     0.948233333333     0.368250000000     0.320100000000     0          
T        Si     0.719000000000     0.445800000000     0.009200000000     0          
T        Si     0.718433333333     0.368250000000     0.429900000000     0          
T        Si     0.947666666667     0.054200000000     0.259200000000     0          
T        Si     0.948233333333     0.131750000000     0.179900000000     0          
T        Si     0.947666666667     0.445800000000     0.009200000000     0          
T        Si     0.948233333333     0.368250000000     0.429900000000     0          
T        Si     0.719000000000     0.054200000000     0.259200000000     0          
T        Si     0.718433333333     0.131750000000     0.179900000000     0          
T        Si     0.947666666667     0.054200000000     0.490800000000     0          
T        Si     0.948233333333     0.131750000000     0.070100000000     0          
T        Si     0.719000000000     0.445800000000     0.240800000000     0          
T        Si     0.718433333333     0.368250000000     0.320100000000     0          
T        Si     0.885666666667     0.304200000000     0.490800000000     0          
T        Si     0.885100000000     0.381750000000     0.070100000000     0          
T        Si     0.781000000000     0.195800000000     0.240800000000     0          
T        Si     0.781566666667     0.118250000000     0.320100000000     0          
T        Si     0.885666666667     0.195800000000     0.009200000000     0          
T        Si     0.885100000000     0.118250000000     0.429900000000     0          
T        Si     0.781000000000     0.304200000000     0.259200000000     0          
T        Si     0.781566666667     0.381750000000     0.179900000000     0          
T        Si     0.781000000000     0.195800000000     0.009200000000     0          
T        Si     0.781566666667     0.118250000000     0.429900000000     0          
T        Si     0.885666666667     0.304200000000     0.259200000000     0          
T        Si     0.885100000000     0.381750000000     0.179900000000     0          
T        Si     0.781000000000     0.304200000000     0.490800000000     0          
T        Si     0.781566666667     0.381750000000     0.070100000000     0          
T        Si     0.885666666667     0.195800000000     0.240800000000     0          
T        Si     0.885100000000     0.118250000000     0.320100000000     0          
T        Si     0.719000000000     0.054200000000     0.990800000000     0          
T        Si     0.718433333333     0.131750000000     0.570100000000     0          
T        Si     0.947666666667     0.445800000000     0.740800000000     0          
T        Si     0.948233333333     0.368250000000     0.820100000000     0          
T        Si     0.719000000000     0.445800000000     0.509200000000     0          
T        Si     0.718433333333     0.368250000000     0.929900000000     0          
T        Si     0.947666666667     0.054200000000     0.759200000000     0          
T        Si     0.948233333333     0.131750000000     0.679900000000     0          
T        Si     0.947666666667     0.445800000000     0.509200000000     0          
T        Si     0.948233333333     0.368250000000     0.929900000000     0          
T        Si     0.719000000000     0.054200000000     0.759200000000     0          
T        Si     0.718433333333     0.131750000000     0.679900000000     0          
T        Si     0.947666666667     0.054200000000     0.990800000000     0          
T        Si     0.948233333333     0.131750000000     0.570100000000     0          
T        Si     0.719000000000     0.445800000000     0.740800000000     0          
T        Si     0.718433333333     0.368250000000     0.820100000000     0          
T        Si     0.885666666667     0.304200000000     0.990800000000     0          
T        Si     0.885100000000     0.381750000000     0.570100000000     0          
T        Si     0.781000000000     0.195800000000     0.740800000000     0          
T        Si     0.781566666667     0.118250000000     0.820100000000     0          
T        Si     0.885666666667     0.195800000000     0.509200000000     0          
T        Si     0.885100000000     0.118250000000     0.929900000000     0          
T        Si     0.781000000000     0.304200000000     0.759200000000     0          
T        Si     0.781566666667     0.381750000000     0.679900000000     0          
T        Si     0.781000000000     0.195800000000     0.509200000000     0          
T        Si     0.781566666667     0.118250000000     0.929900000000     0          
T        Si     0.885666666667     0.304200000000     0.759200000000     0          
T        Si     0.885100000000     0.381750000000     0.679900000000     0          
T        Si     0.781000000000     0.304200000000     0.990800000000     0          
T        Si     0.781566666667     0.381750000000     0.570100000000     0          
T        Si     0.885666666667     0.195800000000     0.740800000000     0          
T        Si     0.885100000000     0.118250000000     0.820100000000     0          
T        Si     0.719000000000     0.554200000000     0.490800000000     0          
T        Si     0.718433333333     0.631750000000     0.070100000000     0          
T        Si     0.947666666667     0.945800000000     0.240800000000     0          
T        Si     0.948233333333     0.868250000000     0.320100000000     0          
T        Si     0.719000000000     0.945800000000     0.009200000000     0          
T        Si     0.718433333333     0.868250000000     0.429900000000     0          
T        Si     0.947666666667     0.554200000000     0.259200000000     0          
T        Si     0.948233333333     0.631750000000     0.179900000000     0          
T        Si     0.947666666667     0.945800000000     0.009200000000     0          
T        Si     0.948233333333     0.868250000000     0.429900000000     0          
T        Si     0.719000000000     0.554200000000     0.259200000000     0          
T        Si     0.718433333333     0.631750000000     0.179900000000     0          
T        Si     0.947666666667     0.554200000000     0.490800000000     0          
T        Si     0.948233333333     0.631750000000     0.070100000000     0          
T        Si     0.719000000000     0.945800000000     0.240800000000     0          
T        Si     0.718433333333     0.868250000000     0.320100000000     0          
T        Si     0.885666666667     0.804200000000     0.490800000000     0          
T        Si     0.885100000000     0.881750000000     0.070100000000     0          
T        Si     0.781000000000     0.695800000000     0.240800000000     0          
T        Si     0.781566666667     0.618250000000     0.320100000000     0          
T        Si     0.885666666667     0.695800000000     0.009200000000     0          
T        Si     0.885100000000     0.618250000000     0.429900000000     0          
T        Si     0.781000000000     0.804200000000     0.259200000000     0          
T        Si     0.781566666667     0.881750000000     0.179900000000     0          
T        Si     0.781000000000     0.695800000000     0.009200000000     0          
T        Si     0.781566666667     0.618250000000     0.429900000000     0          
T        Si     0.885666666667     0.804200000000     0.259200000000     0          
T        Si     0.885100000000     0.881750000000     0.179900000000     0          
T        Si     0.781000000000     0.804200000000     0.490800000000     0          
T        Si     0.781566666667     0.881750000000     0.070100000000     0          
T        Si     0.885666666667     0.695800000000     0.240800000000     0          
T        Si     0.885100000000     0.618250000000     0.320100000000     0          
T        Si     0.719000000000     0.554200000000     0.990800000000     0          
T        Si     0.718433333333     0.631750000000     0.570100000000     0          
T        Si     0.947666666667     0.945800000000     0.740800000000     0          
T        Si     0.948233333333     0.868250000000     0.820100000000     0          
T        Si     0.719000000000     0.945800000000     0.509200000000     0          
T        Si     0.718433333333     0.868250000000     0.929900000000     0          
T        Si     0.947666666667     0.554200000000     0.759200000000     0          
T        Si     0.948233333333     0.631750000000     0.679900000000     0          
T        Si     0.947666666667     0.945800000000     0.509200000000     0          
T        Si     0.948233333333     0.868250000000     0.929900000000     0          
T        Si     0.719000000000     0.554200000000     0.759200000000     0          
T        Si     0.718433333333     0.631750000000     0.679900000000     0          
T        Si     0.947666666667     0.554200000000     0.990800000000     0          
T        Si     0.948233333333     0.631750000000     0.570100000000     0          
T        Si     0.719000000000     0.945800000000     0.740800000000     0          
T        Si     0.718433333333     0.868250000000     0.820100000000     0          
T        Si     0.885666666667     0.804200000000     0.990800000000     0          
T        Si     0.885100000000     0.881750000000     0.570100000000     0          
T        Si     0.781000000000     0.695800000000     0.740800000000     0          
T        Si     0.781566666667     0.618250000000     0.820100000000     0          
T        Si     0.885666666667     0.695800000000     0.509200000000     0          
T        Si     0.885100000000     0.618250000000     0.929900000000     0          
T        Si     0.781000000000     0.804200000000     0.759200000000     0          
T        Si     0.781566666667     0.881750000000     0.679900000000     0          
T        Si     0.781000000000     0.695800000000     0.509200000000     0          
T        Si     0.781566666667     0.618250000000     0.929900000000     0          
T        Si     0.885666666667     0.804200000000     0.759200000000     0          
T        Si     0.885100000000     0.881750000000     0.679900000000     0          
T        Si     0.781000000000     0.804200000000     0.990800000000     0          
T        Si     0.781566666667     0.881750000000     0.570100000000     0          
T        Si     0.885666666667     0.695800000000     0.740800000000     0          
T        Si     0.885100000000     0.618250000000     0.820100000000     0          
O        O      0.000000000000     0.055750000000     0.475800000000     0          
O        O      0.059766666667     0.084700000000     0.038650000000     0          
O        O      0.067366666667     0.000000000000     0.000000000000     0          
O        O      0.082433333333     0.076350000000     0.448550000000     0          
O        O      0.063033333333     0.120400000000     0.125000000000     0          
O        O      0.000000000000     0.148300000000     0.065450000000     0          
O        O      0.000000000000     0.444250000000     0.225800000000     0          
O        O      0.273566666667     0.415300000000     0.288650000000     0          
O        O      0.265966666667     0.000000000000     0.250000000000     0          
O        O      0.250900000000     0.423650000000     0.198550000000     0          
O        O      0.270300000000     0.379600000000     0.375000000000     0          
O        O      0.000000000000     0.351700000000     0.315450000000     0          
O        O      0.000000000000     0.444250000000     0.024200000000     0          
O        O      0.059766666667     0.415300000000     0.461350000000     0          
O        O      0.082433333333     0.423650000000     0.051450000000     0          
O        O      0.063033333333     0.379600000000     0.375000000000     0          
O        O      0.000000000000     0.351700000000     0.434550000000     0          
O        O      0.000000000000     0.055750000000     0.274200000000     0          
O        O      0.273566666667     0.084700000000     0.211350000000     0          
O        O      0.250900000000     0.076350000000     0.301450000000     0          
O        O      0.270300000000     0.120400000000     0.125000000000     0          
O        O      0.000000000000     0.148300000000     0.184550000000     0          
O        O      0.273566666667     0.415300000000     0.461350000000     0          
O        O      0.265966666667     0.000000000000     0.000000000000     0          
O        O      0.250900000000     0.423650000000     0.051450000000     0          
O        O      0.059766666667     0.084700000000     0.211350000000     0          
O        O      0.067366666667     0.000000000000     0.250000000000     0          
O        O      0.082433333333     0.076350000000     0.301450000000     0          
O        O      0.273566666667     0.084700000000     0.038650000000     0          
O        O      0.250900000000     0.076350000000     0.448550000000     0          
O        O      0.059766666667     0.415300000000     0.288650000000     0          
O        O      0.082433333333     0.423650000000     0.198550000000     0          
O        O      0.166666666667     0.305750000000     0.475800000000     0          
O        O      0.226433333333     0.334700000000     0.038650000000     0          
O        O      0.234033333333     0.250000000000     0.000000000000     0          
O        O      0.249100000000     0.326350000000     0.448550000000     0          
O        O      0.229700000000     0.370400000000     0.125000000000     0          
O        O      0.166666666667     0.398300000000     0.065450000000     0          
O        O      0.166666666667     0.194250000000     0.225800000000     0          
O        O      0.106900000000     0.165300000000     0.288650000000     0          
O        O      0.099300000000     0.250000000000     0.250000000000     0          
O        O      0.084233333333     0.173650000000     0.198550000000     0          
O        O      0.103633333333     0.129600000000     0.375000000000     0          
O        O      0.166666666667     0.101700000000     0.315450000000     0          
O        O      0.166666666667     0.194250000000     0.024200000000     0          
O        O      0.226433333333     0.165300000000     0.461350000000     0          
O        O      0.249100000000     0.173650000000     0.051450000000     0          
O        O      0.229700000000     0.129600000000     0.375000000000     0          
O        O      0.166666666667     0.101700000000     0.434550000000     0          
O        O      0.166666666667     0.305750000000     0.274200000000     0          
O        O      0.106900000000     0.334700000000     0.211350000000     0          
O        O      0.084233333333     0.326350000000     0.301450000000     0          
O        O      0.103633333333     0.370400000000     0.125000000000     0          
O        O      0.166666666667     0.398300000000     0.184550000000     0          
O        O      0.106900000000     0.165300000000     0.461350000000     0          
O        O      0.099300000000     0.250000000000     0.000000000000     0          
O        O      0.084233333333     0.173650000000     0.051450000000     0          
O        O      0.226433333333     0.334700000000     0.211350000000     0          
O        O      0.234033333333     0.250000000000     0.250000000000     0          
O        O      0.249100000000     0.326350000000     0.301450000000     0          
O        O      0.106900000000     0.334700000000     0.038650000000     0          
O        O      0.084233333333     0.326350000000     0.448550000000     0          
O        O      0.226433333333     0.165300000000     0.288650000000     0          
O        O      0.249100000000     0.173650000000     0.198550000000     0          
O        O      0.000000000000     0.055750000000     0.975800000000     0          
O        O      0.059766666667     0.084700000000     0.538650000000     0          
O        O      0.067366666667     0.000000000000     0.500000000000     0          
O        O      0.082433333333     0.076350000000     0.948550000000     0          
O        O      0.063033333333     0.120400000000     0.625000000000     0          
O        O      0.000000000000     0.148300000000     0.565450000000     0          
O        O      0.000000000000     0.444250000000     0.725800000000     0          
O        O      0.273566666667     0.415300000000     0.788650000000     0          
O        O      0.265966666667     0.000000000000     0.750000000000     0          
O        O      0.250900000000     0.423650000000     0.698550000000     0          
O        O      0.270300000000     0.379600000000     0.875000000000     0          
O        O      0.000000000000     0.351700000000     0.815450000000     0          
O        O      0.000000000000     0.444250000000     0.524200000000     0          
O        O      0.059766666667     0.415300000000     0.961350000000     0          
O        O      0.082433333333     0.423650000000     0.551450000000     0          
O        O      0.063033333333     0.379600000000     0.875000000000     0          
O        O      0.000000000000     0.351700000000     0.934550000000     0          
O        O      0.000000000000     0.055750000000     0.774200000000     0          
O        O      0.273566666667     0.084700000000     0.711350000000     0          
O        O      0.250900000000     0.076350000000     0.801450000000     0          
O        O      0.270300000000     0.120400000000     0.625000000000     0          
O        O      0.000000000000     0.148300000000     0.684550000000     0          
O        O      0.273566666667     0.415300000000     0.961350000000     0          
O        O      0.265966666667     0.000000000000     0.500000000000     0          
O        O      0.250900000000     0.423650000000     0.551450000000     0          
O        O      0.059766666667     0.084700000000     0.711350000000     0          
O        O      0.067366666667     0.000000000000     0.750000000000     0          
O        O      0.082433333333     0.076350000000     0.801450000000     0          
O        O      0.273566666667     0.084700000000     0.538650000000     0          
O        O      0.250900000000     0.076350000000     0.948550000000     0          
O        O      0.059766666667     0.415300000000     0.788650000000     0          
O        O      0.082433333333     0.423650000000     0.698550000000     0          
O        O      0.166666666667     0.305750000000     0.975800000000     0          
O        O      0.226433333333     0.334700000000     0.538650000000     0          
O        O      0.234033333333     0.250000000000     0.500000000000     0          
O        O      0.249100000000     0.326350000000     0.948550000000     0          
O        O      0.229700000000     0.370400000000     0.625000000000     0          
O        O      0.166666666667     0.398300000000     0.565450000000     0          
O        O      0.166666666667     0.194250000000     0.725800000000     0          
O        O      0.106900000000     0.165300000000     0.788650000000     0          
O        O      0.099300000000     0.250000000000     0.750000000000     0          
O        O      0.084233333333     0.173650000000     0.698550000000     0          
O        O      0.103633333333     0.129600000000     0.875000000000     0          
O        O      0.166666666667     0.101700000000     0.815450000000     0          
O        O      0.166666666667     0.194250000000     0.524200000000     0          
O        O      0.226433333333     0.165300000000     0.961350000000     0          
O        O      0.249100000000     0.173650000000     0.551450000000     0          
O        O      0.229700000000     0.129600000000     0.875000000000     0          
O        O      0.166666666667     0.101700000000     0.934550000000     0          
O        O      0.166666666667     0.305750000000     0.774200000000     0          
O        O      0.106900000000     0.334700000000     0.711350000000     0          
O        O      0.084233333333     0.326350000000     0.801450000000     0          
O        O      0.103633333333     0.370400000000     0.625000000000     0          
O        O      0.166666666667     0.398300000000     0.684550000000     0          
O        O      0.106900000000     0.165300000000     0.961350000000     0          
O        O      0.099300000000     0.250000000000     0.500000000000     0          
O        O      0.084233333333     0.173650000000     0.551450000000     0          
O        O      0.226433333333     0.334700000000     0.711350000000     0          
O        O      0.234033333333     0.250000000000     0.750000000000     0          
O        O      0.249100000000     0.326350000000     0.801450000000     0          
O        O      0.106900000000     0.334700000000     0.538650000000     0          
O        O      0.084233333333     0.326350000000     0.948550000000     0          
O        O      0.226433333333     0.165300000000     0.788650000000     0          
O        O      0.249100000000     0.173650000000     0.698550000000     0          
O        O      0.000000000000     0.555750000000     0.475800000000     0          
O        O      0.059766666667     0.584700000000     0.038650000000     0          
O        O      0.067366666667     0.500000000000     0.000000000000     0          
O        O      0.082433333333     0.576350000000     0.448550000000     0          
O        O      0.063033333333     0.620400000000     0.125000000000     0          
O        O      0.000000000000     0.648300000000     0.065450000000     0          
O        O      0.000000000000     0.944250000000     0.225800000000     0          
O        O      0.273566666667     0.915300000000     0.288650000000     0          
O        O      0.265966666667     0.500000000000     0.250000000000     0          
O        O      0.250900000000     0.923650000000     0.198550000000     0          
O        O      0.270300000000     0.879600000000     0.375000000000     0          
O        O      0.000000000000     0.851700000000     0.315450000000     0          
O        O      0.000000000000     0.944250000000     0.024200000000     0          
O        O      0.059766666667     0.915300000000     0.461350000000     0          
O        O      0.082433333333     0.923650000000     0.051450000000     0          
O        O      0.063033333333     0.879600000000     0.375000000000     0          
O        O      0.000000000000     0.851700000000     0.434550000000     0          
O        O      0.000000000000     0.555750000000     0.274200000000     0          
O        O      0.273566666667     0.584700000000     0.211350000000     0          
O        O      0.250900000000     0.576350000000     0.301450000000     0          
O        O      0.270300000000     0.620400000000     0.125000000000     0          
O        O      0.000000000000     0.648300000000     0.184550000000     0          
O        O      0.273566666667     0.915300000000     0.461350000000     0          
O        O      0.265966666667     0.500000000000     0.000000000000     0          
O        O      0.250900000000     0.923650000000     0.051450000000     0          
O        O      0.059766666667     0.584700000000     0.211350000000     0          
O        O      0.067366666667     0.500000000000     0.250000000000     0          
O        O      0.082433333333     0.576350000000     0.301450000000     0          
O        O      0.273566666667     0.584700000000     0.038650000000     0          
O        O      0.250900000000     0.576350000000     0.448550000000     0          
O        O      0.059766666667     0.915300000000     0.288650000000     0          
O        O      0.082433333333     0.923650000000     0.198550000000     0          
O        O      0.166666666667     0.805750000000     0.475800000000     0          
O        O      0.226433333333     0.834700000000     0.038650000000     0          
O        O      0.234033333333     0.750000000000     0.000000000000     0          
O        O      0.249100000000     0.826350000000     0.448550000000     0          
O        O      0.229700000000     0.870400000000     0.125000000000     0          
O        O      0.166666666667     0.898300000000     0.065450000000     0          
O        O      0.166666666667     0.694250000000     0.225800000000     0          
O        O      0.106900000000     0.665300000000     0.288650000000     0          
O        O      0.099300000000     0.750000000000     0.250000000000     0          
O        O      0.084233333333     0.673650000000     0.198550000000     0          
O        O      0.103633333333     0.629600000000     0.375000000000     0          
O        O      0.166666666667     0.601700000000     0.315450000000     0          
O        O      0.166666666667     0.694250000000     0.024200000000     0          
O        O      0.226433333333     0.665300000000     0.461350000000     0          
O        O      0.249100000000     0.673650000000     0.051450000000     0          
O        O      0.229700000000     0.629600000000     0.375000000000     0          
O        O      0.166666666667     0.601700000000     0.434550000000     0          
O        O      0.166666666667     0.805750000000     0.274200000000     0          
O        O      0.106900000000     0.834700000000     0.211350000000     0          
O        O      0.084233333333     0.826350000000     0.301450000000     0          
O        O      0.103633333333     0.870400000000     0.125000000000     0          
O        O      0.166666666667     0.898300000000     0.184550000000     0          
O        O      0.106900000000     0.665300000000     0.461350000000     0          
O        O      0.099300000000     0.750000000000     0.000000000000     0          
O        O      0.084233333333     0.673650000000     0.051450000000     0          
O        O      0.226433333333     0.834700000000     0.211350000000     0          
O        O      0.234033333333     0.750000000000     0.250000000000     0          
O        O      0.249100000000     0.826350000000     0.301450000000     0          
O        O      0.106900000000     0.834700000000     0.038650000000     0          
O        O      0.084233333333     0.826350000000     0.448550000000     0          
O        O      0.226433333333     0.665300000000     0.288650000000     0          
O        O      0.249100000000     0.673650000000     0.198550000000     0          
O        O      0.000000000000     0.555750000000     0.975800000000     0          
O        O      0.059766666667     0.584700000000     0.538650000000     0          
O        O      0.067366666667     0.500000000000     0.500000000000     0          
O        O      0.082433333333     0.576350000000     0.948550000000     0          
O        O      0.063033333333     0.620400000000     0.625000000000     0          
O        O      0.000000000000     0.648300000000     0.565450000000     0          
O        O      0.000000000000     0.944250000000     0.725800000000     0          
O        O      0.273566666667     0.915300000000     0.788650000000     0          
O        O      0.265966666667     0.500000000000     0.750000000000     0          
O        O      0.250900000000     0.923650000000     0.698550000000     0          
O        O      0.270300000000     0.879600000000     0.875000000000     0          
O        O      0.000000000000     0.851700000000     0.815450000000     0          
O        O      0.000000000000     0.944250000000     0.524200000000     0          
O        O      0.059766666667     0.915300000000     0.961350000000     0          
O        O      0.082433333333     0.923650000000     0.551450000000     0          
O        O      0.063033333333     0.879600000000     0.875000000000     0          
O        O      0.000000000000     0.851700000000     0.934550000000     0          
O        O      0.000000000000     0.555750000000     0.774200000000     0          
O        O      0.273566666667     0.584700000000     0.711350000000     0          
O        O      0.250900000000     0.576350000000     0.801450000000     0          
O        O      0.270300000000     0.620400000000     0.625000000000     0          
O        O      0.000000000000     0.648300000000     0.684550000000     0          
O        O      0.273566666667     0.915300000000     0.961350000000     0          
O        O      0.265966666667     0.500000000000     0.500000000000     0          
O        O      0.250900000000     0.923650000000     0.551450000000     0          
O        O      0.059766666667     0.584700000000     0.711350000000     0          
O        O      0.067366666667     0.500000000000     0.750000000000     0          
O        O      0.082433333333     0.576350000000     0.801450000000     0          
O        O      0.273566666667     0.584700000000     0.538650000000     0          
O        O      0.250900000000     0.576350000000     0.948550000000     0          
O        O      0.059766666667     0.915300000000     0.788650000000     0          
O        O      0.082433333333     0.923650000000     0.698550000000     0          
O        O      0.166666666667     0.805750000000     0.975800000000     0          
O        O      0.226433333333     0.834700000000     0.538650000000     0          
O        O      0.234033333333     0.750000000000     0.500000000000     0          
O        O      0.249100000000     0.826350000000     0.948550000000     0          
O        O      0.229700000000     0.870400000000     0.625000000000     0          
O        O      0.166666666667     0.898300000000     0.565450000000     0          
O        O      0.166666666667     0.694250000000     0.725800000000     0          
O        O      0.106900000000     0.665300000000     0.788650000000     0          
O        O      0.099300000000     0.750000000000     0.750000000000     0          
O        O      0.084233333333     0.673650000000     0.698550000000     0          
O        O      0.103633333333     0.629600000000     0.875000000000     0          
O        O      0.166666666667     0.601700000000     0.815450000000     0          
O        O      0.166666666667     0.694250000000     0.524200000000     0          
O        O      0.226433333333     0.665300000000     0.961350000000     0          
O        O      0.249100000000     0.673650000000     0.551450000000     0          
O        O      0.229700000000     0.629600000000     0.875000000000     0          
O        O      0.166666666667     0.601700000000     0.934550000000     0          
O        O      0.166666666667     0.805750000000     0.774200000000     0          
O        O      0.106900000000     0.834700000000     0.711350000000     0          
O        O      0.084233333333     0.826350000000     0.801450000000     0          
O        O      0.103633333333     0.870400000000     0.625000000000     0          
O        O      0.166666666667     0.898300000000     0.684550000000     0          
O        O      0.106900000000     0.665300000000     0.961350000000     0          
O        O      0.099300000000     0.750000000000     0.500000000000     0          
O        O      0.084233333333     0.673650000000     0.551450000000     0          
O        O      0.226433333333     0.834700000000     0.711350000000     0          
O        O      0.234033333333     0.750000000000     0.750000000000     0          
O        O      0.249100000000     0.826350000000     0.801450000000     0          
O        O      0.106900000000     0.834700000000     0.538650000000     0          
O        O      0.084233333333     0.826350000000     0.948550000000     0          
O        O      0.226433333333     0.665300000000     0.788650000000     0          
O        O      0.249100000000     0.673650000000     0.698550000000     0          
O        O      0.333333333333     0.055750000000     0.475800000000     0          
O        O      0.393100000000     0.084700000000     0.038650000000     0          
O        O      0.400700000000     0.000000000000     0.000000000000     0          
O        O      0.415766666667     0.076350000000     0.448550000000     0          
O        O      0.396366666667     0.120400000000     0.125000000000     0          
O        O      0.333333333333     0.148300000000     0.065450000000     0          
O        O      0.333333333333     0.444250000000     0.225800000000     0          
O        O      0.606900000000     0.415300000000     0.288650000000     0          
O        O      0.599300000000     0.000000000000     0.250000000000     0          
O        O      0.584233333333     0.423650000000     0.198550000000     0          
O        O      0.603633333333     0.379600000000     0.375000000000     0          
O        O      0.333333333333     0.351700000000     0.315450000000     0          
O        O      0.333333333333     0.444250000000     0.024200000000     0          
O        O      0.393100000000     0.415300000000     0.461350000000     0          
O        O      0.415766666667     0.423650000000     0.051450000000     0          
O        O      0.396366666667     0.379600000000     0.375000000000     0          
O        O      0.333333333333     0.351700000000     0.434550000000     0          
O        O      0.333333333333     0.055750000000     0.274200000000     0          
O        O      0.606900000000     0.084700000000     0.211350000000     0          
O        O      0.584233333333     0.076350000000     0.301450000000     0          
O        O      0.603633333333     0.120400000000     0.125000000000     0          
O        O      0.333333333333     0.148300000000     0.184550000000     0          
O        O      0.606900000000     0.415300000000     0.461350000000     0          
O        O      0.599300000000     0.000000000000     0.000000000000     0          
O        O      0.584233333333     0.423650000000     0.051450000000     0          
O        O      0.393100000000     0.084700000000     0.211350000000     0          
O        O      0.400700000000     0.000000000000     0.250000000000     0          
O        O      0.415766666667     0.076350000000     0.301450000000     0          
O        O      0.606900000000     0.084700000000     0.038650000000     0          
O        O      0.584233333333     0.076350000000     0.448550000000     0          
O        O      0.393100000000     0.415300000000     0.288650000000     0          
O        O      0.415766666667     0.423650000000     0.198550000000     0          
O        O      0.500000000000     0.305750000000     0.475800000000     0          
O        O      0.559766666667     0.334700000000     0.038650000000     0          
O        O      0.567366666667     0.250000000000     0.000000000000     0          
O        O      0.582433333333     0.326350000000     0.448550000000     0          
O        O      0.563033333333     0.370400000000     0.125000000000     0          
O        O      0.500000000000     0.398300000000     0.065450000000     0          
O        O      0.500000000000     0.194250000000     0.225800000000     0          
O        O      0.440233333333     0.165300000000     0.288650000000     0          
O        O      0.432633333333     0.250000000000     0.250000000000     0          
O        O      0.417566666667     0.173650000000     0.198550000000     0          
O        O      0.436966666667     0.129600000000     0.375000000000     0          
O        O      0.500000000000     0.101700000000     0.315450000000     0          
O        O      0.500000000000     0.194250000000     0.024200000000     0          
O        O      0.559766666667     0.165300000000     0.461350000000     0          
O        O      0.582433333333     0.173650000000     0.051450000000     0          
O        O      0.563033333333     0.129600000000     0.375000000000     0          
O        O      0.500000000000     0.101700000000     0.434550000000     0          
O        O      0.500000000000     0.305750000000     0.274200000000     0          
O        O      0.440233333333     0.334700000000     0.211350000000     0          
O        O      0.417566666667     0.326350000000     0.301450000000     0          
O        O      0.436966666667     0.370400000000     0.125000000000     0          
O        O      0.500000000000     0.398300000000     0.184550000000     0          
O        O      0.440233333333     0.165300000000     0.461350000000     0          
O        O      0.432633333333     0.250000000000     0.000000000000     0          
O        O      0.417566666667     0.173650000000     0.051450000000     0          
O        O      0.559766666667     0.334700000000     0.211350000000     0          
O        O      0.567366666667     0.250000000000     0.250000000000     0          
O        O      0.582433333333     0.326350000000     0.301450000000     0          
O        O      0.440233333333     0.334700000000     0.038650000000     0          
O        O      0.417566666667     0.326350000000     0.448550000000     0          
O        O      0.559766666667     0.165300000000     0.288650000000     0          
O        O      0.582433333333     0.173650000000     0.198550000000     0          
O        O      0.333333333333     0.055750000000     0.975800000000     0          
O        O      0.393100000000     0.084700000000     0.538650000000     0          
O        O      0.400700000000     0.000000000000     0.500000000000     0          
O        O      0.415766666667     0.076350000000     0.948550000000     0          
O        O      0.396366666667     0.120400000000     0.625000000000     0          
O        O      0.333333333333     0.148300000000     0.565450000000     0          
O        O      0.333333333333     0.444250000000     0.725800000000     0          
O        O      0.606900000000     0.415300000000     0.788650000000     0          
O        O      0.599300000000     0.000000000000     0.750000000000     0          
O        O      0.584233333333     0.423650000000     0.698550000000     0          
O        O      0.603633333333     0.379600000000     0.875000000000     0          
O        O      0.333333333333     0.351700000000     0.815450000000     0          
O        O      0.333333333333     0.444250000000     0.524200000000     0          
O        O      0.393100000000     0.415300000000     0.961350000000     0          
O        O      0.415766666667     0.423650000000     0.551450000000     0          
O        O      0.396366666667     0.379600000000     0.875000000000     0          
O        O      0.333333333333     0.351700000000     0.934550000000     0          
O        O      0.333333333333     0.055750000000     0.774200000000     0          
O        O      0.606900000000     0.084700000000     0.711350000000     0          
O        O      0.584233333333     0.076350000000     0.801450000000     0          
O        O      0.603633333333     0.120400000000     0.625000000000     0          
O        O      0.333333333333     0.148300000000     0.684550000000     0          
O        O      0.606900000000     0.415300000000     0.961350000000     0          
O        O      0.599300000000     0.000000000000     0.500000000000     0          
O        O      0.584233333333     0.423650000000     0.551450000000     0          
O        O      0.393100000000     0.084700000000     0.711350000000     0          
O        O      0.400700000000     0.000000000000     0.750000000000     0          
O        O      0.415766666667     0.076350000000     0.801450000000     0          
O        O      0.606900000000     0.084700000000     0.538650000000     0          
O        O      0.584233333333     0.076350000000     0.948550000000     0          
O        O      0.393100000000     0.415300000000     0.788650000000     0          
O        O      0.415766666667     0.423650000000     0.698550000000     0          
O        O      0.500000000000     0.305750000000     0.975800000000     0          
O        O      0.559766666667     0.334700000000     0.538650000000     0          
O        O      0.567366666667     0.250000000000     0.500000000000     0          
O        O      0.582433333333     0.326350000000     0.948550000000     0          
O        O      0.563033333333     0.370400000000     0.625000000000     0          
O        O      0.500000000000     0.398300000000     0.565450000000     0          
O        O      0.500000000000     0.194250000000     0.725800000000     0          
O        O      0.440233333333     0.165300000000     0.788650000000     0          
O        O      0.432633333333     0.250000000000     0.750000000000     0          
O        O      0.417566666667     0.173650000000     0.698550000000     0          
O        O      0.436966666667     0.129600000000     0.875000000000     0          
O        O      0.500000000000     0.101700000000     0.815450000000     0          
O        O      0.500000000000     0.194250000000     0.524200000000     0          
O        O      0.559766666667     0.165300000000     0.961350000000     0          
O        O      0.582433333333     0.173650000000     0.551450000000     0          
O        O      0.563033333333     0.129600000000     0.875000000000     0          
O        O      0.500000000000     0.101700000000     0.934550000000     0          
O        O      0.500000000000     0.305750000000     0.774200000000     0          
O        O      0.440233333333     0.334700000000     0.711350000000     0          
O        O      0.417566666667     0.326350000000     0.801450000000     0          
O        O      0.436966666667     0.370400000000     0.625000000000     0          
O        O      0.500000000000     0.398300000000     0.684550000000     0          
O        O      0.440233333333     0.165300000000     0.961350000000     0          
O        O      0.432633333333     0.250000000000     0.500000000000     0          
O        O      0.417566666667     0.173650000000     0.551450000000     0          
O        O      0.559766666667     0.334700000000     0.711350000000     0          
O        O      0.567366666667     0.250000000000     0.750000000000     0          
O        O      0.582433333333     0.326350000000     0.801450000000     0          
O        O      0.440233333333     0.334700000000     0.538650000000     0          
O        O      0.417566666667     0.326350000000     0.948550000000     0          
O        O      0.559766666667     0.165300000000     0.788650000000     0          
O        O      0.582433333333     0.173650000000     0.698550000000     0          
O        O      0.333333333333     0.555750000000     0.475800000000     0          
O        O      0.393100000000     0.584700000000     0.038650000000     0          
O        O      0.400700000000     0.500000000000     0.000000000000     0          
O        O      0.415766666667     0.576350000000     0.448550000000     0          
O        O      0.396366666667     0.620400000000     0.125000000000     0          
O        O      0.333333333333     0.648300000000     0.065450000000     0          
O        O      0.333333333333     0.944250000000     0.225800000000     0          
O        O      0.606900000000     0.915300000000     0.288650000000     0          
O        O      0.599300000000     0.500000000000     0.250000000000     0          
O        O      0.584233333333     0.923650000000     0.198550000000     0          
O        O      0.603633333333     0.879600000000     0.375000000000     0          
O        O      0.333333333333     0.851700000000     0.315450000000     0          
O        O      0.333333333333     0.944250000000     0.024200000000     0          
O        O      0.393100000000     0.915300000000     0.461350000000     0          
O        O      0.415766666667     0.923650000000     0.051450000000     0          
O        O      0.396366666667     0.879600000000     0.375000000000     0          
O        O      0.333333333333     0.851700000000     0.434550000000     0          
O        O      0.333333333333     0.555750000000     0.274200000000     0          
O        O      0.606900000000     0.584700000000     0.211350000000     0          
O        O      0.584233333333     0.576350000000     0.301450000000     0          
O        O      0.603633333333     0.620400000000     0.125000000000     0          
O        O      0.333333333333     0.648300000000     0.184550000000     0          
O        O      0.606900000000     0.915300000000     0.461350000000     0          
O        O      0.599300000000     0.500000000000     0.000000000000     0          
O        O      0.584233333333     0.923650000000     0.051450000000     0          
O        O      0.393100000000     0.584700000000     0.211350000000     0          
O        O      0.400700000000     0.500000000000     0.250000000000     0          
O        O      0.415766666667     0.576350000000     0.301450000000     0          
O        O      0.606900000000     0.584700000000     0.038650000000     0          
O        O      0.584233333333     0.576350000000     0.448550000000     0          
O        O      0.393100000000     0.915300000000     0.288650000000     0          
O        O      0.415766666667     0.923650000000     0.198550000000     0          
O        O      0.500000000000     0.805750000000     0.475800000000     0          
O        O      0.559766666667     0.834700000000     0.038650000000     0          
O        O      0.567366666667     0.750000000000     0.000000000000     0          
O        O      0.582433333333     0.826350000000     0.448550000000     0          
O        O      0.563033333333     0.870400000000     0.125000000000     0          
O        O      0.500000000000     0.898300000000     0.065450000000     0          
O        O      0.500000000000     0.694250000000     0.225800000000     0          
O        O      0.440233333333     0.665300000000     0.288650000000     0          
O        O      0.432633333333     0.750000000000     0.250000000000     0          
O        O      0.417566666667     0.673650000000     0.198550000000     0          
O        O      0.436966666667     0.629600000000     0.375000000000     0          
O        O      0.500000000000     0.601700000000     0.315450000000     0          
O        O      0.500000000000     0.694250000000     0.024200000000     0          
O        O      0.559766666667     0.665300000000     0.461350000000     0          
O        O      0.582433333333     0.673650000000     0.051450000000     0          
O        O      0.563033333333     0.629600000000     0.375000000000     0          
O        O      0.500000000000     0.601700000000     0.434550000000     0          
O        O      0.500000000000     0.805750000000     0.274200000000     0          
O        O      0.440233333333     0.834700000000     0.211350000000     0          
O        O      0.417566666667     0.826350000000     0.301450000000     0          
O        O      0.436966666667     0.870400000000     0.125000000000     0          
O        O      0.500000000000     0.898300000000     0.184550000000     0          
O        O      0.440233333333     0.665300000000     0.461350000000     0          
O        O      0.432633333333     0.750000000000     0.000000000000     0          
O        O      0.417566666667     0.673650000000     0.051450000000     0          
O        O      0.559766666667     0.834700000000     0.211350000000     0          
O        O      0.567366666667     0.750000000000     0.250000000000     0          
O        O      0.582433333333     0.826350000000     0.301450000000     0          
O        O      0.440233333333     0.834700000000     0.038650000000     0          
O        O      0.417566666667     0.826350000000     0.448550000000     0          
O        O      0.559766666667     0.665300000000     0.288650000000     0          
O        O      0.582433333333     0.673650000000     0.198550000000     0          
O        O      0.333333333333     0.555750000000     0.975800000000     0          
O        O      0.393100000000     0.584700000000     0.538650000000     0          
O        O      0.400700000000     0.500000000000     0.500000000000     0          
O        O      0.415766666667     0.576350000000     0.948550000000     0          
O        O      0.396366666667     0.620400000000     0.625000000000     0          
O        O      0.333333333333     0.648300000000     0.565450000000     0          
O        O      0.333333333333     0.944250000000     0.725800000000     0          
O        O      0.606900000000     0.915300000000     0.788650000000     0          
O        O      0.599300000000     0.500000000000     0.750000000000     0          
O        O      0.584233333333     0.923650000000     0.698550000000     0          
O        O      0.603633333333     0.879600000000     0.875000000000     0          
O        O      0.333333333333     0.851700000000     0.815450000000     0          
O        O      0.333333333333     0.944250000000     0.524200000000     0          
O        O      0.393100000000     0.915300000000     0.961350000000     0          
O        O      0.415766666667     0.923650000000     0.551450000000     0          
O        O      0.396366666667     0.879600000000     0.875000000000     0          
O        O      0.333333333333     0.851700000000     0.934550000000     0          
O        O      0.333333333333     0.555750000000     0.774200000000     0          
O        O      0.606900000000     0.584700000000     0.711350000000     0          
O        O      0.584233333333     0.576350000000     0.801450000000     0          
O        O      0.603633333333     0.620400000000     0.625000000000     0          
O        O      0.333333333333     0.648300000000     0.684550000000     0          
O        O      0.606900000000     0.915300000000     0.961350000000     0          
O        O      0.599300000000     0.500000000000     0.500000000000     0          
O        O      0.584233333333     0.923650000000     0.551450000000     0          
O        O      0.393100000000     0.584700000000     0.711350000000     0          
O        O      0.400700000000     0.500000000000     0.750000000000     0          
O        O      0.415766666667     0.576350000000     0.801450000000     0          
O        O      0.606900000000     0.584700000000     0.538650000000     0          
O        O      0.584233333333     0.576350000000     0.948550000000     0          
O        O      0.393100000000     0.915300000000     0.788650000000     0          
O        O      0.415766666667     0.923650000000     0.698550000000     0          
O        O      0.500000000000     0.805750000000     0.975800000000     0          
O        O      0.559766666667     0.834700000000     0.538650000000     0          
O        O      0.567366666667     0.750000000000     0.500000000000     0          
O        O      0.582433333333     0.826350000000     0.948550000000     0          
O        O      0.563033333333     0.870400000000     0.625000000000     0          
O        O      0.500000000000     0.898300000000     0.565450000000     0          
O        O      0.500000000000     0.694250000000     0.725800000000     0          
O        O      0.440233333333     0.665300000000     0.788650000000     0          
O        O      0.432633333333     0.750000000000     0.750000000000     0          
O        O      0.417566666667     0.673650000000     0.698550000000     0          
O        O      0.436966666667     0.629600000000     0.875000000000     0          
O        O      0.500000000000     0.601700000000     0.815450000000     0          
O        O      0.500000000000     0.694250000000     0.524200000000     0          
O        O      0.559766666667     0.665300000000     0.961350000000     0          
O        O      0.582433333333     0.673650000000     0.551450000000     0          
O        O      0.563033333333     0.629600000000     0.875000000000     0          
O        O      0.500000000000     0.601700000000     0.934550000000     0          
O        O      0.500000000000     0.805750000000     0.774200000000     0          
O        O      0.440233333333     0.834700000000     0.711350000000     0          
O        O      0.417566666667     0.826350000000     0.801450000000     0          
O        O      0.436966666667     0.870400000000     0.625000000000     0          
O        O      0.500000000000     0.898300000000     0.684550000000     0          
O        O      0.440233333333     0.665300000000     0.961350000000     0          
O        O      0.432633333333     0.750000000000     0.500000000000     0          
O        O      0.417566666667     0.673650000000     0.551450000000     0          
O        O      0.559766666667     0.834700000000     0.711350000000     0          
O        O      0.567366666667     0.750000000000     0.750000000000     0          
O        O      0.582433333333     0.826350000000     0.801450000000     0          
O        O      0.440233333333     0.834700000000     0.538650000000     0          
O        O      0.417566666667     0.826350000000     0.948550000000     0          
O        O      0.559766666667     0.665300000000     0.788650000000     0          
O        O      0.582433333333     0.673650000000     0.698550000000     0          
O        O      0.666666666667     0.055750000000     0.475800000000     0          
O        O      0.726433333333     0.084700000000     0.038650000000     0          
O        O      0.734033333333     0.000000000000     0.000000000000     0          
O        O      0.749100000000     0.076350000000     0.448550000000     0          
O        O      0.729700000000     0.120400000000     0.125000000000     0          
O        O      0.666666666667     0.148300000000     0.065450000000     0          
O        O      0.666666666667     0.444250000000     0.225800000000     0          
O        O      0.940233333333     0.415300000000     0.288650000000     0          
O        O      0.932633333333     0.000000000000     0.250000000000     0          
O        O      0.917566666667     0.423650000000     0.198550000000     0          
O        O      0.936966666667     0.379600000000     0.375000000000     0          
O        O      0.666666666667     0.351700000000     0.315450000000     0          
O        O      0.666666666667     0.444250000000     0.024200000000     0          
O        O      0.726433333333     0.415300000000     0.461350000000     0          
O        O      0.749100000000     0.423650000000     0.051450000000     0          
O        O      0.729700000000     0.379600000000     0.375000000000     0          
O        O      0.666666666667     0.351700000000     0.434550000000     0          
O        O      0.666666666667     0.055750000000     0.274200000000     0          
O        O      0.940233333333     0.084700000000     0.211350000000     0          
O        O      0.917566666667     0.076350000000     0.301450000000     0          
O        O      0.936966666667     0.120400000000     0.125000000000     0          
O        O      0.666666666667     0.148300000000     0.184550000000     0          
O        O      0.940233333333     0.415300000000     0.461350000000     0          
O        O      0.932633333333     0.000000000000     0.000000000000     0          
O        O      0.917566666667     0.423650000000     0.051450000000     0          
O        O      0.726433333333     0.084700000000     0.211350000000     0          
O        O      0.734033333333     0.000000000000     0.250000000000     0          
O        O      0.749100000000     0.076350000000     0.301450000000     0          
O        O      0.940233333333     0.084700000000     0.038650000000     0          
O        O      0.917566666667     0.076350000000     0.448550000000     0          
O        O      0.726433333333     0.415300000000     0.288650000000     0          
O        O      0.749100000000     0.423650000000     0.198550000000     0          
O        O      0.833333333333     0.305750000000     0.475800000000     0          
O        O      0.893100000000     0.334700000000     0.038650000000     0          
O        O      0.900700000000     0.250000000000     0.000000000000     0          
O        O      0.915766666667     0.326350000000     0.448550000000     0          
O        O      0.896366666667     0.370400000000     0.125000000000     0          
O        O      0.833333333333     0.398300000000     0.065450000000     0          
O        O      0.833333333333     0.194250000000     0.225800000000     0          
O        O      0.773566666667     0.165300000000     0.288650000000     0          
O        O      0.765966666667     0.250000000000     0.250000000000     0          
O        O      0.750900000000     0.173650000000     0.198550000000     0          
O        O      0.770300000000     0.129600000000     0.375000000000     0          
O        O      0.833333333333     0.101700000000     0.315450000000     0          
O        O      0.833333333333     0.194250000000     0.024200000000     0          
O        O      0.893100000000     0.165300000000     0.461350000000     0          
O        O      0.915766666667     0.173650000000     0.051450000000     0          
O        O      0.896366666667     0.129600000000     0.375000000000     0          
O        O      0.833333333333     0.101700000000     0.434550000000     0          
O        O      0.833333333333     0.305750000000     0.274200000000     0          
O        O      0.773566666667     0.334700000000     0.211350000000     0          
O        O      0.750900000000     0.326350000000     0.301450000000     0          
O        O      0.770300000000     0.370400000000     0.125000000000     0          
O        O      0.833333333333     0.398300000000     0.184550000000     0          
O        O      0.773566666667     0.165300000000     0.461350000000     0          
O        O      0.765966666667     0.250000000000     0.000000000000     0          
O        O      0.750900000000     0.173650000000     0.051450000000     0          
O        O      0.893100000000     0.334700000000     0.211350000000     0          
O        O      0.900700000000     0.250000000000     0.250000000000     0          
O        O      0.915766666667     0.326350000000     0.301450000000     0          
O        O      0.773566666667     0.334700000000     0.038650000000     0          
O        O      0.750900000000     0.326350000000     0.448550000000     0          
O        O      0.893100000000     0.165300000000     0.288650000000     0          
O        O      0.915766666667     0.173650000000     0.198550000000     0          
O        O      0.666666666667     0.055750000000     0.975800000000     0          
O        O      0.726433333333     0.084700000000     0.538650000000     0          
O        O      0.734033333333     0.000000000000     0.500000000000     0          
O        O      0.749100000000     0.076350000000     0.948550000000     0          
O        O      0.729700000000     0.120400000000     0.625000000000     0          
O        O      0.666666666667     0.148300000000     0.565450000000     0          
O        O      0.666666666667     0.444250000000     0.725800000000     0          
O        O      0.940233333333     0.415300000000     0.788650000000     0          
O        O      0.932633333333     0.000000000000     0.750000000000     0          
O        O      0.917566666667     0.423650000000     0.698550000000     0          
O        O      0.936966666667     0.379600000000     0.875000000000     0          
O        O      0.666666666667     0.351700000000     0.815450000000     0          
O        O      0.666666666667     0.444250000000     0.524200000000     0          
O        O      0.726433333333     0.415300000000     0.961350000000     0          
O        O      0.749100000000     0.423650000000     0.551450000000     0          
O        O      0.729700000000     0.379600000000     0.875000000000     0          
O        O      0.666666666667     0.351700000000     0.934550000000     0          
O        O      0.666666666667     0.055750000000     0.774200000000     0          
O        O      0.940233333333     0.084700000000     0.711350000000     0          
O        O      0.917566666667     0.076350000000     0.801450000000     0          
O        O      0.936966666667     0.120400000000     0.625000000000     0          
O        O      0.666666666667     0.148300000000     0.684550000000     0          
O        O      0.940233333333     0.415300000000     0.961350000000     0          
O        O      0.932633333333     0.000000000000     0.500000000000     0          
O        O      0.917566666667     0.423650000000     0.551450000000     0          
O        O      0.726433333333     0.084700000000     0.711350000000     0          
O        O      0.734033333333     0.000000000000     0.750000000000     0          
O        O      0.749100000000     0.076350000000     0.801450000000     0          
O        O      0.940233333333     0.084700000000     0.538650000000     0          
O        O      0.917566666667     0.076350000000     0.948550000000     0          
O        O      0.726433333333     0.415300000000     0.788650000000     0          
O        O      0.749100000000     0.423650000000     0.698550000000     0          
O        O      0.833333333333     0.305750000000     0.975800000000     0          
O        O      0.893100000000     0.334700000000     0.538650000000     0          
O        O      0.900700000000     0.250000000000     0.500000000000     0          
O        O      0.915766666667     0.326350000000     0.948550000000     0          
O        O      0.896366666667     0.370400000000     0.625000000000     0          
O        O      0.833333333333     0.398300000000     0.565450000000     0          
O        O      0.833333333333     0.194250000000     0.725800000000     0          
O        O      0.773566666667     0.165300000000     0.788650000000     0          
O        O      0.765966666667     0.250000000000     0.750000000000     0          
O        O      0.750900000000     0.173650000000     0.698550000000     0          
O        O      0.770300000000     0.129600000000     0.875000000000     0          
O        O      0.833333333333     0.101700000000     0.815450000000     0          
O        O      0.833333333333     0.194250000000     0.524200000000     0          
O        O      0.893100000000     0.165300000000     0.961350000000     0          
O        O      0.915766666667     0.173650000000     0.551450000000     0          
O        O      0.896366666667     0.129600000000     0.875000000000     0          
O        O      0.833333333333     0.101700000000     0.934550000000     0          
O        O      0.833333333333     0.305750000000     0.774200000000     0          
O        O      0.773566666667     0.334700000000     0.711350000000     0          
O        O      0.750900000000     0.326350000000     0.801450000000     0          
O        O      0.770300000000     0.370400000000     0.625000000000     0          
O        O      0.833333333333     0.398300000000     0.684550000000     0          
O        O      0.773566666667     0.165300000000     0.961350000000     0          
O        O      0.765966666667     0.250000000000     0.500000000000     0          
O        O      0.750900000000     0.173650000000     0.551450000000     0          
O        O      0.893100000000     0.334700000000     0.711350000000     0          
O        O      0.900700000000     0.250000000000     0.750000000000     0          
O        O      0.915766666667     0.326350000000     0.801450000000     0          
O        O      0.773566666667     0.334700000000     0.538650000000     0          
O        O      0.750900000000     0.326350000000     0.948550000000     0          
O        O      0.893100000000     0.165300000000     0.788650000000     0          
O        O      0.915766666667     0.173650000000     0.698550000000     0          
O        O      0.666666666667     0.555750000000     0.475800000000     0          
O        O      0.726433333333     0.584700000000     0.038650000000     0          
O        O      0.734033333333     0.500000000000     0.000000000000     0          
O        O      0.749100000000     0.576350000000     0.448550000000     0          
O        O      0.729700000000     0.620400000000     0.125000000000     0          
O        O      0.666666666667     0.648300000000     0.065450000000     0          
O        O      0.666666666667     0.944250000000     0.225800000000     0          
O        O      0.940233333333     0.915300000000     0.288650000000     0          
O        O      0.932633333333     0.500000000000     0.250000000000     0          
O        O      0.917566666667     0.923650000000     0.198550000000     0          
O        O      0.936966666667     0.879600000000     0.375000000000     0          
O        O      0.666666666667     0.851700000000     0.315450000000     0          
O        O      0.666666666667     0.944250000000     0.024200000000     0          
O        O      0.726433333333     0.915300000000     0.461350000000     0          
O        O      0.749100000000     0.923650000000     0.051450000000     0          
O        O      0.729700000000     0.879600000000     0.375000000000     0          
O        O      0.666666666667     0.851700000000     0.434550000000     0          
O        O      0.666666666667     0.555750000000     0.274200000000     0          
O        O      0.940233333333     0.584700000000     0.211350000000     0          
O        O      0.917566666667     0.576350000000     0.301450000000     0          
O        O      0.936966666667     0.620400000000     0.125000000000     0          
O        O      0.666666666667     0.648300000000     0.184550000000     0          
O        O      0.940233333333     0.915300000000     0.461350000000     0          
O        O      0.932633333333     0.500000000000     0.000000000000     0          
O        O      0.917566666667     0.923650000000     0.051450000000     0          
O        O      0.726433333333     0.584700000000     0.211350000000     0          
O        O      0.734033333333     0.500000000000     0.250000000000     0          
O        O      0.749100000000     0.576350000000     0.301450000000     0          
O        O      0.940233333333     0.584700000000     0.038650000000     0          
O        O      0.917566666667     0.576350000000     0.448550000000     0          
O        O      0.726433333333     0.915300000000     0.288650000000     0          
O        O      0.749100000000     0.923650000000     0.198550000000     0          
O        O      0.833333333333     0.805750000000     0.475800000000     0          
O        O      0.893100000000     0.834700000000     0.038650000000     0          
O        O      0.900700000000     0.750000000000     0.000000000000     0          
O        O      0.915766666667     0.826350000000     0.448550000000     0          
O        O      0.896366666667     0.870400000000     0.125000000000     0          
O        O      0.833333333333     0.898300000000     0.065450000000     0          
O        O      0.833333333333     0.694250000000     0.225800000000     0          
O        O      0.773566666667     0.665300000000     0.288650000000     0          
O        O      0.765966666667     0.750000000000     0.250000000000     0          
O        O      0.750900000000     0.673650000000     0.198550000000     0          
O        O      0.770300000000     0.629600000000     0.375000000000     0          
O        O      0.833333333333     0.601700000000     0.315450000000     0          
O        O      0.833333333333     0.694250000000     0.024200000000     0          
O        O      0.893100000000     0.665300000000     0.461350000000     0          
O        O      0.915766666667     0.673650000000     0.051450000000     0          
O        O      0.896366666667     0.629600000000     0.375000000000     0          
O        O      0.833333333333     0.601700000000     0.434550000000     0          
O        O      0.833333333333     0.805750000000     0.274200000000     0          
O        O      0.773566666667     0.834700000000     0.211350000000     0          
O        O      0.750900000000     0.826350000000     0.301450000000     0          
O        O      0.770300000000     0.870400000000     0.125000000000     0          
O        O      0.833333333333     0.898300000000     0.184550000000     0          
O        O      0.773566666667     0.665300000000     0.461350000000     0          
O        O      0.765966666667     0.750000000000     0.000000000000     0          
O        O      0.750900000000     0.673650000000     0.051450000000     0          
O        O      0.893100000000     0.834700000000     0.211350000000     0          
O        O      0.900700000000     0.750000000000     0.250000000000     0          
O        O      0.915766666667     0.826350000000     0.301450000000     0          
O        O      0.773566666667     0.834700000000     0.038650000000     0          
O        O      0.750900000000     0.826350000000     0.448550000000     0          
O        O      0.893100000000     0.665300000000     0.288650000000     0          
O        O      0.915766666667     0.673650000000     0.198550000000     0          
O        O      0.666666666667     0.555750000000     0.975800000000     0          
O        O      0.726433333333     0.584700000000     0.538650000000     0          
O        O      0.734033333333     0.500000000000     0.500000000000     0          
O        O      0.749100000000     0.576350000000     0.948550000000     0          
O        O      0.729700000000     0.620400000000     0.625000000000     0          
O        O      0.666666666667     0.648300000000     0.565450000000     0          
O        O      0.666666666667     0.944250000000     0.725800000000     0          
O        O      0.940233333333     0.915300000000     0.788650000000     0          
O        O      0.932633333333     0.500000000000     0.750000000000     0          
O        O      0.917566666667     0.923650000000     0.698550000000     0          
O        O      0.936966666667     0.879600000000     0.875000000000     0          
O        O      0.666666666667     0.851700000000     0.815450000000     0          
O        O      0.666666666667     0.944250000000     0.524200000000     0          
O        O      0.726433333333     0.915300000000     0.961350000000     0          
O        O      0.749100000000     0.923650000000     0.551450000000     0          
O        O      0.729700000000     0.879600000000     0.875000000000     0          
O        O      0.666666666667     0.851700000000     0.934550000000     0          
O        O      0.666666666667     0.555750000000     0.774200000000     0          
O        O      0.940233333333     0.584700000000     0.711350000000     0          
O        O      0.917566666667     0.576350000000     0.801450000000     0          
O        O      0.936966666667     0.620400000000     0.625000000000     0          
O        O      0.666666666667     0.648300000000     0.684550000000     0          
O        O      0.940233333333     0.915300000000     0.961350000000     0          
O        O      0.932633333333     0.500000000000     0.500000000000     0          
O        O      0.917566666667     0.923650000000     0.551450000000     0          
O        O      0.726433333333     0.584700000000     0.711350000000     0          
O        O      0.734033333333     0.500000000000     0.750000000000     0          
O        O      0.749100000000     0.576350000000     0.801450000000     0          
O        O      0.940233333333     0.584700000000     0.538650000000     0          
O        O      0.917566666667     0.576350000000     0.948550000000     0          
O        O      0.726433333333     0.915300000000     0.788650000000     0          
O        O      0.749100000000     0.923650000000     0.698550000000     0          
O        O      0.833333333333     0.805750000000     0.975800000000     0          
O        O      0.893100000000     0.834700000000     0.538650000000     0          
O        O      0.900700000000     0.750000000000     0.500000000000     0          
O        O      0.915766666667     0.826350000000     0.948550000000     0          
O        O      0.896366666667     0.870400000000     0.625000000000     0          
O        O      0.833333333333     0.898300000000     0.565450000000     0          
O        O      0.833333333333     0.694250000000     0.725800000000     0          
O        O      0.773566666667     0.665300000000     0.788650000000     0          
O        O      0.765966666667     0.750000000000     0.750000000000     0          
O        O      0.750900000000     0.673650000000     0.698550000000     0          
O        O      0.770300000000     0.629600000000     0.875000000000     0          
O        O      0.833333333333     0.601700000000     0.815450000000     0          
O        O      0.833333333333     0.694250000000     0.524200000000     0          
O        O      0.893100000000     0.665300000000     0.961350000000     0          
O        O      0.915766666667     0.673650000000     0.551450000000     0          
O        O      0.896366666667     0.629600000000     0.875000000000     0          
O        O      0.833333333333     0.601700000000     0.934550000000     0          
O        O      0.833333333333     0.805750000000     0.774200000000     0          
O        O      0.773566666667     0.834700000000     0.711350000000     0          
O        O      0.750900000000     0.826350000000     0.801450000000     0          
O        O      0.770300000000     0.870400000000     0.625000000000     0          
O        O      0.833333333333     0.898300000000     0.684550000000     0          
O        O      0.773566666667     0.665300000000     0.961350000000     0          
O        O      0.765966666667     0.750000000000     0.500000000000     0          
O        O      0.750900000000     0.673650000000     0.551450000000     0          
O        O      0.893100000000     0.834700000000     0.711350000000     0          
O        O      0.900700000000     0.750000000000     0.750000000000     0          
O        O      0.915766666667     0.826350000000     0.801450000000     0          
O        O      0.773566666667     0.834700000000     0.538650000000     0          
O        O      0.750900000000     0.826350000000     0.948550000000     0          
O        O      0.893100000000     0.665300000000     0.788650000000     0          
O        O      0.915766666667     0.673650000000     0.698550000000     0          


