data_zeolite

_audit_creation_method RASPA-1.0
_audit_creation_date 2021-1-29
_audit_author_name ''

_cell_length_a    49.2616
_cell_length_b    26.6513
_cell_length_c    38.1802
_cell_angle_alpha 90
_cell_angle_beta  90
_cell_angle_gamma 90
_cell_volume      50126.2

_symmetry_cell_setting          orthorhombic
_symmetry_space_group_name_Hall 'P 1'
_symmetry_space_group_name_H-M  'P 1'
_symmetry_Int_Tables_number     1

_symmetry_equiv_pos_as_xyz 'x,y,z'

loop_
_atom_site_label
_atom_site_type_symbol
_atom_site_fract_x
_atom_site_fract_y
_atom_site_fract_z
_atom_site_charge
Si       Si     0.065515000000     0.092880000000     0.102033333333     0          
Si       Si     0.100580000000     0.058200000000     0.039630000000     0          
Si       Si     0.030705000000     0.183360000000     0.125856666667     0          
Si       Si     0.030695000000     0.297930000000     0.125820000000     0          
Si       Si     0.055510000000     0.394700000000     0.101896666667     0          
Si       Si     0.087675000000     0.442200000000     0.040370000000     0          
Si       Si     0.098520000000     0.057270000000     0.166666666667     0          
Si       Si     0.086170000000     0.442730000000     0.166666666667     0          
Si       Si     0.032615000000     0.000000000000     0.126673333333     0          
Si       Si     0.000000000000     0.439790000000     0.127336666667     0          
O        O      0.118640000000     0.435900000000     0.053176666667     0          
O        O      0.078655000000     0.500000000000     0.044203333333     0          
O        O      0.085210000000     0.425350000000     0.000000000000     0          
O        O      0.068185000000     0.407640000000     0.064103333333     0          
O        O      0.050825000000     0.146700000000     0.104686666667     0          
O        O      0.080180000000     0.089200000000     0.064436666667     0          
O        O      0.087925000000     0.086510000000     0.132383333333     0          
O        O      0.043235000000     0.049160000000     0.106336666667     0          
O        O      0.098400000000     0.078550000000     0.000000000000     0          
O        O      0.091905000000     0.000000000000     0.040450000000     0          
O        O      0.000000000000     0.000000000000     0.126206666667     0          
O        O      0.043020000000     0.000000000000     0.166666666667     0          
O        O      0.050720000000     0.335050000000     0.104840000000     0          
O        O      0.075665000000     0.413740000000     0.132263333333     0          
O        O      0.026635000000     0.422250000000     0.106250000000     0          
O        O      0.031655000000     0.312690000000     0.166666666667     0          
O        O      0.040325000000     0.240650000000     0.120876666667     0          
O        O      0.000000000000     0.304080000000     0.111886666667     0          
O        O      0.000000000000     0.177130000000     0.111986666667     0          
O        O      0.031805000000     0.168460000000     0.166666666667     0          
O        O      0.118825000000     0.442280000000     0.166666666667     0          
O        O      0.075725000000     0.500000000000     0.166666666667     0          
O        O      0.088075000000     0.000000000000     0.166666666667     0          
O        O      0.000000000000     0.417810000000     0.166666666667     0          
O        O      0.000000000000     0.500000000000     0.129526666667     0          
Si       Si     0.434485000000     0.907120000000     0.102033333333     0          
Si       Si     0.399420000000     0.941800000000     0.039630000000     0          
Si       Si     0.469295000000     0.816640000000     0.125856666667     0          
Si       Si     0.469305000000     0.702070000000     0.125820000000     0          
Si       Si     0.444490000000     0.605300000000     0.101896666667     0          
Si       Si     0.412325000000     0.557800000000     0.040370000000     0          
Si       Si     0.401480000000     0.942730000000     0.166666666667     0          
Si       Si     0.413830000000     0.557270000000     0.166666666667     0          
Si       Si     0.467385000000     0.000000000000     0.126673333333     0          
Si       Si     0.000000000000     0.560210000000     0.127336666667     0          
O        O      0.381360000000     0.564100000000     0.053176666667     0          
O        O      0.421345000000     0.500000000000     0.044203333333     0          
O        O      0.414790000000     0.574650000000     0.000000000000     0          
O        O      0.431815000000     0.592360000000     0.064103333333     0          
O        O      0.449175000000     0.853300000000     0.104686666667     0          
O        O      0.419820000000     0.910800000000     0.064436666667     0          
O        O      0.412075000000     0.913490000000     0.132383333333     0          
O        O      0.456765000000     0.950840000000     0.106336666667     0          
O        O      0.401600000000     0.921450000000     0.000000000000     0          
O        O      0.408095000000     0.000000000000     0.040450000000     0          
O        O      0.456980000000     0.000000000000     0.166666666667     0          
O        O      0.449280000000     0.664950000000     0.104840000000     0          
O        O      0.424335000000     0.586260000000     0.132263333333     0          
O        O      0.473365000000     0.577750000000     0.106250000000     0          
O        O      0.468345000000     0.687310000000     0.166666666667     0          
O        O      0.459675000000     0.759350000000     0.120876666667     0          
O        O      0.000000000000     0.695920000000     0.111886666667     0          
O        O      0.000000000000     0.822870000000     0.111986666667     0          
O        O      0.468195000000     0.831540000000     0.166666666667     0          
O        O      0.381175000000     0.557720000000     0.166666666667     0          
O        O      0.424275000000     0.500000000000     0.166666666667     0          
O        O      0.411925000000     0.000000000000     0.166666666667     0          
O        O      0.000000000000     0.582190000000     0.166666666667     0          
Si       Si     0.065515000000     0.907120000000     0.231300000000     0          
Si       Si     0.100580000000     0.941800000000     0.293703333333     0          
Si       Si     0.030705000000     0.816640000000     0.207476666667     0          
Si       Si     0.030695000000     0.702070000000     0.207513333333     0          
Si       Si     0.055510000000     0.605300000000     0.231436666667     0          
Si       Si     0.087675000000     0.557800000000     0.292963333333     0          
Si       Si     0.098520000000     0.942730000000     0.166666666667     0          
Si       Si     0.086170000000     0.557270000000     0.166666666667     0          
Si       Si     0.032615000000     0.000000000000     0.206660000000     0          
Si       Si     0.000000000000     0.560210000000     0.205996666667     0          
O        O      0.118640000000     0.564100000000     0.280156666667     0          
O        O      0.078655000000     0.500000000000     0.289130000000     0          
O        O      0.085210000000     0.574650000000     0.000000000000     0          
O        O      0.068185000000     0.592360000000     0.269230000000     0          
O        O      0.050825000000     0.853300000000     0.228646666667     0          
O        O      0.080180000000     0.910800000000     0.268896666667     0          
O        O      0.087925000000     0.913490000000     0.200950000000     0          
O        O      0.043235000000     0.950840000000     0.226996666667     0          
O        O      0.098400000000     0.921450000000     0.000000000000     0          
O        O      0.091905000000     0.000000000000     0.292883333333     0          
O        O      0.000000000000     0.000000000000     0.207126666667     0          
O        O      0.050720000000     0.664950000000     0.228493333333     0          
O        O      0.075665000000     0.586260000000     0.201070000000     0          
O        O      0.026635000000     0.577750000000     0.227083333333     0          
O        O      0.031655000000     0.687310000000     0.166666666667     0          
O        O      0.040325000000     0.759350000000     0.212456666667     0          
O        O      0.000000000000     0.695920000000     0.221446666667     0          
O        O      0.000000000000     0.822870000000     0.221346666667     0          
O        O      0.031805000000     0.831540000000     0.166666666667     0          
O        O      0.118825000000     0.557720000000     0.166666666667     0          
O        O      0.000000000000     0.500000000000     0.203806666667     0          
Si       Si     0.434485000000     0.092880000000     0.231300000000     0          
Si       Si     0.399420000000     0.058200000000     0.293703333333     0          
Si       Si     0.469295000000     0.183360000000     0.207476666667     0          
Si       Si     0.469305000000     0.297930000000     0.207513333333     0          
Si       Si     0.444490000000     0.394700000000     0.231436666667     0          
Si       Si     0.412325000000     0.442200000000     0.292963333333     0          
Si       Si     0.401480000000     0.057270000000     0.166666666667     0          
Si       Si     0.413830000000     0.442730000000     0.166666666667     0          
Si       Si     0.467385000000     0.000000000000     0.206660000000     0          
Si       Si     0.000000000000     0.439790000000     0.205996666667     0          
O        O      0.381360000000     0.435900000000     0.280156666667     0          
O        O      0.421345000000     0.500000000000     0.289130000000     0          
O        O      0.414790000000     0.425350000000     0.000000000000     0          
O        O      0.431815000000     0.407640000000     0.269230000000     0          
O        O      0.449175000000     0.146700000000     0.228646666667     0          
O        O      0.419820000000     0.089200000000     0.268896666667     0          
O        O      0.412075000000     0.086510000000     0.200950000000     0          
O        O      0.456765000000     0.049160000000     0.226996666667     0          
O        O      0.401600000000     0.078550000000     0.000000000000     0          
O        O      0.408095000000     0.000000000000     0.292883333333     0          
O        O      0.449280000000     0.335050000000     0.228493333333     0          
O        O      0.424335000000     0.413740000000     0.201070000000     0          
O        O      0.473365000000     0.422250000000     0.227083333333     0          
O        O      0.468345000000     0.312690000000     0.166666666667     0          
O        O      0.459675000000     0.240650000000     0.212456666667     0          
O        O      0.000000000000     0.304080000000     0.221446666667     0          
O        O      0.000000000000     0.177130000000     0.221346666667     0          
O        O      0.468195000000     0.168460000000     0.166666666667     0          
O        O      0.381175000000     0.442280000000     0.166666666667     0          
Si       Si     0.434485000000     0.907120000000     0.231300000000     0          
Si       Si     0.399420000000     0.941800000000     0.293703333333     0          
Si       Si     0.469295000000     0.816640000000     0.207476666667     0          
Si       Si     0.469305000000     0.702070000000     0.207513333333     0          
Si       Si     0.444490000000     0.605300000000     0.231436666667     0          
Si       Si     0.412325000000     0.557800000000     0.292963333333     0          
O        O      0.381360000000     0.564100000000     0.280156666667     0          
O        O      0.431815000000     0.592360000000     0.269230000000     0          
O        O      0.449175000000     0.853300000000     0.228646666667     0          
O        O      0.419820000000     0.910800000000     0.268896666667     0          
O        O      0.412075000000     0.913490000000     0.200950000000     0          
O        O      0.456765000000     0.950840000000     0.226996666667     0          
O        O      0.449280000000     0.664950000000     0.228493333333     0          
O        O      0.424335000000     0.586260000000     0.201070000000     0          
O        O      0.473365000000     0.577750000000     0.227083333333     0          
O        O      0.459675000000     0.759350000000     0.212456666667     0          
Si       Si     0.065515000000     0.092880000000     0.231300000000     0          
Si       Si     0.100580000000     0.058200000000     0.293703333333     0          
Si       Si     0.030705000000     0.183360000000     0.207476666667     0          
Si       Si     0.030695000000     0.297930000000     0.207513333333     0          
Si       Si     0.055510000000     0.394700000000     0.231436666667     0          
Si       Si     0.087675000000     0.442200000000     0.292963333333     0          
O        O      0.118640000000     0.435900000000     0.280156666667     0          
O        O      0.068185000000     0.407640000000     0.269230000000     0          
O        O      0.050825000000     0.146700000000     0.228646666667     0          
O        O      0.080180000000     0.089200000000     0.268896666667     0          
O        O      0.087925000000     0.086510000000     0.200950000000     0          
O        O      0.043235000000     0.049160000000     0.226996666667     0          
O        O      0.050720000000     0.335050000000     0.228493333333     0          
O        O      0.075665000000     0.413740000000     0.201070000000     0          
O        O      0.026635000000     0.422250000000     0.227083333333     0          
O        O      0.040325000000     0.240650000000     0.212456666667     0          
Si       Si     0.434485000000     0.092880000000     0.102033333333     0          
Si       Si     0.399420000000     0.058200000000     0.039630000000     0          
Si       Si     0.469295000000     0.183360000000     0.125856666667     0          
Si       Si     0.469305000000     0.297930000000     0.125820000000     0          
Si       Si     0.444490000000     0.394700000000     0.101896666667     0          
Si       Si     0.412325000000     0.442200000000     0.040370000000     0          
O        O      0.381360000000     0.435900000000     0.053176666667     0          
O        O      0.431815000000     0.407640000000     0.064103333333     0          
O        O      0.449175000000     0.146700000000     0.104686666667     0          
O        O      0.419820000000     0.089200000000     0.064436666667     0          
O        O      0.412075000000     0.086510000000     0.132383333333     0          
O        O      0.456765000000     0.049160000000     0.106336666667     0          
O        O      0.449280000000     0.335050000000     0.104840000000     0          
O        O      0.424335000000     0.413740000000     0.132263333333     0          
O        O      0.473365000000     0.422250000000     0.106250000000     0          
O        O      0.459675000000     0.240650000000     0.120876666667     0          
Si       Si     0.065515000000     0.907120000000     0.102033333333     0          
Si       Si     0.100580000000     0.941800000000     0.039630000000     0          
Si       Si     0.030705000000     0.816640000000     0.125856666667     0          
Si       Si     0.030695000000     0.702070000000     0.125820000000     0          
Si       Si     0.055510000000     0.605300000000     0.101896666667     0          
Si       Si     0.087675000000     0.557800000000     0.040370000000     0          
O        O      0.118640000000     0.564100000000     0.053176666667     0          
O        O      0.068185000000     0.592360000000     0.064103333333     0          
O        O      0.050825000000     0.853300000000     0.104686666667     0          
O        O      0.080180000000     0.910800000000     0.064436666667     0          
O        O      0.087925000000     0.913490000000     0.132383333333     0          
O        O      0.043235000000     0.950840000000     0.106336666667     0          
O        O      0.050720000000     0.664950000000     0.104840000000     0          
O        O      0.075665000000     0.586260000000     0.132263333333     0          
O        O      0.026635000000     0.577750000000     0.106250000000     0          
O        O      0.040325000000     0.759350000000     0.120876666667     0          
Si       Si     0.315515000000     0.592880000000     0.102033333333     0          
Si       Si     0.350580000000     0.558200000000     0.039630000000     0          
Si       Si     0.280705000000     0.683360000000     0.125856666667     0          
Si       Si     0.280695000000     0.797930000000     0.125820000000     0          
Si       Si     0.305510000000     0.894700000000     0.101896666667     0          
Si       Si     0.337675000000     0.942200000000     0.040370000000     0          
Si       Si     0.348520000000     0.557270000000     0.166666666667     0          
Si       Si     0.336170000000     0.942730000000     0.166666666667     0          
Si       Si     0.282615000000     0.500000000000     0.126673333333     0          
Si       Si     0.250000000000     0.939790000000     0.127336666667     0          
O        O      0.368640000000     0.935900000000     0.053176666667     0          
O        O      0.328655000000     0.000000000000     0.044203333333     0          
O        O      0.335210000000     0.925350000000     0.000000000000     0          
O        O      0.318185000000     0.907640000000     0.064103333333     0          
O        O      0.300825000000     0.646700000000     0.104686666667     0          
O        O      0.330180000000     0.589200000000     0.064436666667     0          
O        O      0.337925000000     0.586510000000     0.132383333333     0          
O        O      0.293235000000     0.549160000000     0.106336666667     0          
O        O      0.348400000000     0.578550000000     0.000000000000     0          
O        O      0.341905000000     0.500000000000     0.040450000000     0          
O        O      0.250000000000     0.500000000000     0.126206666667     0          
O        O      0.293020000000     0.500000000000     0.166666666667     0          
O        O      0.300720000000     0.835050000000     0.104840000000     0          
O        O      0.325665000000     0.913740000000     0.132263333333     0          
O        O      0.276635000000     0.922250000000     0.106250000000     0          
O        O      0.281655000000     0.812690000000     0.166666666667     0          
O        O      0.290325000000     0.740650000000     0.120876666667     0          
O        O      0.250000000000     0.804080000000     0.111886666667     0          
O        O      0.250000000000     0.677130000000     0.111986666667     0          
O        O      0.281805000000     0.668460000000     0.166666666667     0          
O        O      0.368825000000     0.942280000000     0.166666666667     0          
O        O      0.325725000000     0.000000000000     0.166666666667     0          
O        O      0.338075000000     0.500000000000     0.166666666667     0          
O        O      0.250000000000     0.917810000000     0.166666666667     0          
O        O      0.250000000000     0.000000000000     0.129526666667     0          
Si       Si     0.184485000000     0.407120000000     0.102033333333     0          
Si       Si     0.149420000000     0.441800000000     0.039630000000     0          
Si       Si     0.219295000000     0.316640000000     0.125856666667     0          
Si       Si     0.219305000000     0.202070000000     0.125820000000     0          
Si       Si     0.194490000000     0.105300000000     0.101896666667     0          
Si       Si     0.162325000000     0.057800000000     0.040370000000     0          
Si       Si     0.151480000000     0.442730000000     0.166666666667     0          
Si       Si     0.163830000000     0.057270000000     0.166666666667     0          
Si       Si     0.217385000000     0.500000000000     0.126673333333     0          
Si       Si     0.250000000000     0.060210000000     0.127336666667     0          
O        O      0.131360000000     0.064100000000     0.053176666667     0          
O        O      0.171345000000     0.000000000000     0.044203333333     0          
O        O      0.164790000000     0.074650000000     0.000000000000     0          
O        O      0.181815000000     0.092360000000     0.064103333333     0          
O        O      0.199175000000     0.353300000000     0.104686666667     0          
O        O      0.169820000000     0.410800000000     0.064436666667     0          
O        O      0.162075000000     0.413490000000     0.132383333333     0          
O        O      0.206765000000     0.450840000000     0.106336666667     0          
O        O      0.151600000000     0.421450000000     0.000000000000     0          
O        O      0.158095000000     0.500000000000     0.040450000000     0          
O        O      0.206980000000     0.500000000000     0.166666666667     0          
O        O      0.199280000000     0.164950000000     0.104840000000     0          
O        O      0.174335000000     0.086260000000     0.132263333333     0          
O        O      0.223365000000     0.077750000000     0.106250000000     0          
O        O      0.218345000000     0.187310000000     0.166666666667     0          
O        O      0.209675000000     0.259350000000     0.120876666667     0          
O        O      0.250000000000     0.195920000000     0.111886666667     0          
O        O      0.250000000000     0.322870000000     0.111986666667     0          
O        O      0.218195000000     0.331540000000     0.166666666667     0          
O        O      0.131175000000     0.057720000000     0.166666666667     0          
O        O      0.174275000000     0.000000000000     0.166666666667     0          
O        O      0.161925000000     0.500000000000     0.166666666667     0          
O        O      0.250000000000     0.082190000000     0.166666666667     0          
Si       Si     0.315515000000     0.407120000000     0.231300000000     0          
Si       Si     0.350580000000     0.441800000000     0.293703333333     0          
Si       Si     0.280705000000     0.316640000000     0.207476666667     0          
Si       Si     0.280695000000     0.202070000000     0.207513333333     0          
Si       Si     0.305510000000     0.105300000000     0.231436666667     0          
Si       Si     0.337675000000     0.057800000000     0.292963333333     0          
Si       Si     0.348520000000     0.442730000000     0.166666666667     0          
Si       Si     0.336170000000     0.057270000000     0.166666666667     0          
Si       Si     0.282615000000     0.500000000000     0.206660000000     0          
Si       Si     0.250000000000     0.060210000000     0.205996666667     0          
O        O      0.368640000000     0.064100000000     0.280156666667     0          
O        O      0.328655000000     0.000000000000     0.289130000000     0          
O        O      0.335210000000     0.074650000000     0.000000000000     0          
O        O      0.318185000000     0.092360000000     0.269230000000     0          
O        O      0.300825000000     0.353300000000     0.228646666667     0          
O        O      0.330180000000     0.410800000000     0.268896666667     0          
O        O      0.337925000000     0.413490000000     0.200950000000     0          
O        O      0.293235000000     0.450840000000     0.226996666667     0          
O        O      0.348400000000     0.421450000000     0.000000000000     0          
O        O      0.341905000000     0.500000000000     0.292883333333     0          
O        O      0.250000000000     0.500000000000     0.207126666667     0          
O        O      0.300720000000     0.164950000000     0.228493333333     0          
O        O      0.325665000000     0.086260000000     0.201070000000     0          
O        O      0.276635000000     0.077750000000     0.227083333333     0          
O        O      0.281655000000     0.187310000000     0.166666666667     0          
O        O      0.290325000000     0.259350000000     0.212456666667     0          
O        O      0.250000000000     0.195920000000     0.221446666667     0          
O        O      0.250000000000     0.322870000000     0.221346666667     0          
O        O      0.281805000000     0.331540000000     0.166666666667     0          
O        O      0.368825000000     0.057720000000     0.166666666667     0          
O        O      0.250000000000     0.000000000000     0.203806666667     0          
Si       Si     0.184485000000     0.592880000000     0.231300000000     0          
Si       Si     0.149420000000     0.558200000000     0.293703333333     0          
Si       Si     0.219295000000     0.683360000000     0.207476666667     0          
Si       Si     0.219305000000     0.797930000000     0.207513333333     0          
Si       Si     0.194490000000     0.894700000000     0.231436666667     0          
Si       Si     0.162325000000     0.942200000000     0.292963333333     0          
Si       Si     0.151480000000     0.557270000000     0.166666666667     0          
Si       Si     0.163830000000     0.942730000000     0.166666666667     0          
Si       Si     0.217385000000     0.500000000000     0.206660000000     0          
Si       Si     0.250000000000     0.939790000000     0.205996666667     0          
O        O      0.131360000000     0.935900000000     0.280156666667     0          
O        O      0.171345000000     0.000000000000     0.289130000000     0          
O        O      0.164790000000     0.925350000000     0.000000000000     0          
O        O      0.181815000000     0.907640000000     0.269230000000     0          
O        O      0.199175000000     0.646700000000     0.228646666667     0          
O        O      0.169820000000     0.589200000000     0.268896666667     0          
O        O      0.162075000000     0.586510000000     0.200950000000     0          
O        O      0.206765000000     0.549160000000     0.226996666667     0          
O        O      0.151600000000     0.578550000000     0.000000000000     0          
O        O      0.158095000000     0.500000000000     0.292883333333     0          
O        O      0.199280000000     0.835050000000     0.228493333333     0          
O        O      0.174335000000     0.913740000000     0.201070000000     0          
O        O      0.223365000000     0.922250000000     0.227083333333     0          
O        O      0.218345000000     0.812690000000     0.166666666667     0          
O        O      0.209675000000     0.740650000000     0.212456666667     0          
O        O      0.250000000000     0.804080000000     0.221446666667     0          
O        O      0.250000000000     0.677130000000     0.221346666667     0          
O        O      0.218195000000     0.668460000000     0.166666666667     0          
O        O      0.131175000000     0.942280000000     0.166666666667     0          
Si       Si     0.184485000000     0.407120000000     0.231300000000     0          
Si       Si     0.149420000000     0.441800000000     0.293703333333     0          
Si       Si     0.219295000000     0.316640000000     0.207476666667     0          
Si       Si     0.219305000000     0.202070000000     0.207513333333     0          
Si       Si     0.194490000000     0.105300000000     0.231436666667     0          
Si       Si     0.162325000000     0.057800000000     0.292963333333     0          
O        O      0.131360000000     0.064100000000     0.280156666667     0          
O        O      0.181815000000     0.092360000000     0.269230000000     0          
O        O      0.199175000000     0.353300000000     0.228646666667     0          
O        O      0.169820000000     0.410800000000     0.268896666667     0          
O        O      0.162075000000     0.413490000000     0.200950000000     0          
O        O      0.206765000000     0.450840000000     0.226996666667     0          
O        O      0.199280000000     0.164950000000     0.228493333333     0          
O        O      0.174335000000     0.086260000000     0.201070000000     0          
O        O      0.223365000000     0.077750000000     0.227083333333     0          
O        O      0.209675000000     0.259350000000     0.212456666667     0          
Si       Si     0.315515000000     0.592880000000     0.231300000000     0          
Si       Si     0.350580000000     0.558200000000     0.293703333333     0          
Si       Si     0.280705000000     0.683360000000     0.207476666667     0          
Si       Si     0.280695000000     0.797930000000     0.207513333333     0          
Si       Si     0.305510000000     0.894700000000     0.231436666667     0          
Si       Si     0.337675000000     0.942200000000     0.292963333333     0          
O        O      0.368640000000     0.935900000000     0.280156666667     0          
O        O      0.318185000000     0.907640000000     0.269230000000     0          
O        O      0.300825000000     0.646700000000     0.228646666667     0          
O        O      0.330180000000     0.589200000000     0.268896666667     0          
O        O      0.337925000000     0.586510000000     0.200950000000     0          
O        O      0.293235000000     0.549160000000     0.226996666667     0          
O        O      0.300720000000     0.835050000000     0.228493333333     0          
O        O      0.325665000000     0.913740000000     0.201070000000     0          
O        O      0.276635000000     0.922250000000     0.227083333333     0          
O        O      0.290325000000     0.740650000000     0.212456666667     0          
Si       Si     0.184485000000     0.592880000000     0.102033333333     0          
Si       Si     0.149420000000     0.558200000000     0.039630000000     0          
Si       Si     0.219295000000     0.683360000000     0.125856666667     0          
Si       Si     0.219305000000     0.797930000000     0.125820000000     0          
Si       Si     0.194490000000     0.894700000000     0.101896666667     0          
Si       Si     0.162325000000     0.942200000000     0.040370000000     0          
O        O      0.131360000000     0.935900000000     0.053176666667     0          
O        O      0.181815000000     0.907640000000     0.064103333333     0          
O        O      0.199175000000     0.646700000000     0.104686666667     0          
O        O      0.169820000000     0.589200000000     0.064436666667     0          
O        O      0.162075000000     0.586510000000     0.132383333333     0          
O        O      0.206765000000     0.549160000000     0.106336666667     0          
O        O      0.199280000000     0.835050000000     0.104840000000     0          
O        O      0.174335000000     0.913740000000     0.132263333333     0          
O        O      0.223365000000     0.922250000000     0.106250000000     0          
O        O      0.209675000000     0.740650000000     0.120876666667     0          
Si       Si     0.315515000000     0.407120000000     0.102033333333     0          
Si       Si     0.350580000000     0.441800000000     0.039630000000     0          
Si       Si     0.280705000000     0.316640000000     0.125856666667     0          
Si       Si     0.280695000000     0.202070000000     0.125820000000     0          
Si       Si     0.305510000000     0.105300000000     0.101896666667     0          
Si       Si     0.337675000000     0.057800000000     0.040370000000     0          
O        O      0.368640000000     0.064100000000     0.053176666667     0          
O        O      0.318185000000     0.092360000000     0.064103333333     0          
O        O      0.300825000000     0.353300000000     0.104686666667     0          
O        O      0.330180000000     0.410800000000     0.064436666667     0          
O        O      0.337925000000     0.413490000000     0.132383333333     0          
O        O      0.293235000000     0.450840000000     0.106336666667     0          
O        O      0.300720000000     0.164950000000     0.104840000000     0          
O        O      0.325665000000     0.086260000000     0.132263333333     0          
O        O      0.276635000000     0.077750000000     0.106250000000     0          
O        O      0.290325000000     0.259350000000     0.120876666667     0          
Si       Si     0.065515000000     0.092880000000     0.435366666667     0          
Si       Si     0.100580000000     0.058200000000     0.372963333333     0          
Si       Si     0.030705000000     0.183360000000     0.459190000000     0          
Si       Si     0.030695000000     0.297930000000     0.459153333333     0          
Si       Si     0.055510000000     0.394700000000     0.435230000000     0          
Si       Si     0.087675000000     0.442200000000     0.373703333333     0          
Si       Si     0.098520000000     0.057270000000     0.500000000000     0          
Si       Si     0.086170000000     0.442730000000     0.500000000000     0          
Si       Si     0.032615000000     0.000000000000     0.460006666667     0          
Si       Si     0.000000000000     0.439790000000     0.460670000000     0          
O        O      0.118640000000     0.435900000000     0.386510000000     0          
O        O      0.078655000000     0.500000000000     0.377536666667     0          
O        O      0.085210000000     0.425350000000     0.333333333333     0          
O        O      0.068185000000     0.407640000000     0.397436666667     0          
O        O      0.050825000000     0.146700000000     0.438020000000     0          
O        O      0.080180000000     0.089200000000     0.397770000000     0          
O        O      0.087925000000     0.086510000000     0.465716666667     0          
O        O      0.043235000000     0.049160000000     0.439670000000     0          
O        O      0.098400000000     0.078550000000     0.333333333333     0          
O        O      0.091905000000     0.000000000000     0.373783333333     0          
O        O      0.000000000000     0.000000000000     0.459540000000     0          
O        O      0.043020000000     0.000000000000     0.500000000000     0          
O        O      0.050720000000     0.335050000000     0.438173333333     0          
O        O      0.075665000000     0.413740000000     0.465596666667     0          
O        O      0.026635000000     0.422250000000     0.439583333333     0          
O        O      0.031655000000     0.312690000000     0.500000000000     0          
O        O      0.040325000000     0.240650000000     0.454210000000     0          
O        O      0.000000000000     0.304080000000     0.445220000000     0          
O        O      0.000000000000     0.177130000000     0.445320000000     0          
O        O      0.031805000000     0.168460000000     0.500000000000     0          
O        O      0.118825000000     0.442280000000     0.500000000000     0          
O        O      0.075725000000     0.500000000000     0.500000000000     0          
O        O      0.088075000000     0.000000000000     0.500000000000     0          
O        O      0.000000000000     0.417810000000     0.500000000000     0          
O        O      0.000000000000     0.500000000000     0.462860000000     0          
Si       Si     0.434485000000     0.907120000000     0.435366666667     0          
Si       Si     0.399420000000     0.941800000000     0.372963333333     0          
Si       Si     0.469295000000     0.816640000000     0.459190000000     0          
Si       Si     0.469305000000     0.702070000000     0.459153333333     0          
Si       Si     0.444490000000     0.605300000000     0.435230000000     0          
Si       Si     0.412325000000     0.557800000000     0.373703333333     0          
Si       Si     0.401480000000     0.942730000000     0.500000000000     0          
Si       Si     0.413830000000     0.557270000000     0.500000000000     0          
Si       Si     0.467385000000     0.000000000000     0.460006666667     0          
Si       Si     0.000000000000     0.560210000000     0.460670000000     0          
O        O      0.381360000000     0.564100000000     0.386510000000     0          
O        O      0.421345000000     0.500000000000     0.377536666667     0          
O        O      0.414790000000     0.574650000000     0.333333333333     0          
O        O      0.431815000000     0.592360000000     0.397436666667     0          
O        O      0.449175000000     0.853300000000     0.438020000000     0          
O        O      0.419820000000     0.910800000000     0.397770000000     0          
O        O      0.412075000000     0.913490000000     0.465716666667     0          
O        O      0.456765000000     0.950840000000     0.439670000000     0          
O        O      0.401600000000     0.921450000000     0.333333333333     0          
O        O      0.408095000000     0.000000000000     0.373783333333     0          
O        O      0.456980000000     0.000000000000     0.500000000000     0          
O        O      0.449280000000     0.664950000000     0.438173333333     0          
O        O      0.424335000000     0.586260000000     0.465596666667     0          
O        O      0.473365000000     0.577750000000     0.439583333333     0          
O        O      0.468345000000     0.687310000000     0.500000000000     0          
O        O      0.459675000000     0.759350000000     0.454210000000     0          
O        O      0.000000000000     0.695920000000     0.445220000000     0          
O        O      0.000000000000     0.822870000000     0.445320000000     0          
O        O      0.468195000000     0.831540000000     0.500000000000     0          
O        O      0.381175000000     0.557720000000     0.500000000000     0          
O        O      0.424275000000     0.500000000000     0.500000000000     0          
O        O      0.411925000000     0.000000000000     0.500000000000     0          
O        O      0.000000000000     0.582190000000     0.500000000000     0          
Si       Si     0.065515000000     0.907120000000     0.564633333333     0          
Si       Si     0.100580000000     0.941800000000     0.627036666667     0          
Si       Si     0.030705000000     0.816640000000     0.540810000000     0          
Si       Si     0.030695000000     0.702070000000     0.540846666667     0          
Si       Si     0.055510000000     0.605300000000     0.564770000000     0          
Si       Si     0.087675000000     0.557800000000     0.626296666667     0          
Si       Si     0.098520000000     0.942730000000     0.500000000000     0          
Si       Si     0.086170000000     0.557270000000     0.500000000000     0          
Si       Si     0.032615000000     0.000000000000     0.539993333333     0          
Si       Si     0.000000000000     0.560210000000     0.539330000000     0          
O        O      0.118640000000     0.564100000000     0.613490000000     0          
O        O      0.078655000000     0.500000000000     0.622463333333     0          
O        O      0.085210000000     0.574650000000     0.333333333333     0          
O        O      0.068185000000     0.592360000000     0.602563333333     0          
O        O      0.050825000000     0.853300000000     0.561980000000     0          
O        O      0.080180000000     0.910800000000     0.602230000000     0          
O        O      0.087925000000     0.913490000000     0.534283333333     0          
O        O      0.043235000000     0.950840000000     0.560330000000     0          
O        O      0.098400000000     0.921450000000     0.333333333333     0          
O        O      0.091905000000     0.000000000000     0.626216666667     0          
O        O      0.000000000000     0.000000000000     0.540460000000     0          
O        O      0.050720000000     0.664950000000     0.561826666667     0          
O        O      0.075665000000     0.586260000000     0.534403333333     0          
O        O      0.026635000000     0.577750000000     0.560416666667     0          
O        O      0.031655000000     0.687310000000     0.500000000000     0          
O        O      0.040325000000     0.759350000000     0.545790000000     0          
O        O      0.000000000000     0.695920000000     0.554780000000     0          
O        O      0.000000000000     0.822870000000     0.554680000000     0          
O        O      0.031805000000     0.831540000000     0.500000000000     0          
O        O      0.118825000000     0.557720000000     0.500000000000     0          
O        O      0.000000000000     0.500000000000     0.537140000000     0          
Si       Si     0.434485000000     0.092880000000     0.564633333333     0          
Si       Si     0.399420000000     0.058200000000     0.627036666667     0          
Si       Si     0.469295000000     0.183360000000     0.540810000000     0          
Si       Si     0.469305000000     0.297930000000     0.540846666667     0          
Si       Si     0.444490000000     0.394700000000     0.564770000000     0          
Si       Si     0.412325000000     0.442200000000     0.626296666667     0          
Si       Si     0.401480000000     0.057270000000     0.500000000000     0          
Si       Si     0.413830000000     0.442730000000     0.500000000000     0          
Si       Si     0.467385000000     0.000000000000     0.539993333333     0          
Si       Si     0.000000000000     0.439790000000     0.539330000000     0          
O        O      0.381360000000     0.435900000000     0.613490000000     0          
O        O      0.421345000000     0.500000000000     0.622463333333     0          
O        O      0.414790000000     0.425350000000     0.333333333333     0          
O        O      0.431815000000     0.407640000000     0.602563333333     0          
O        O      0.449175000000     0.146700000000     0.561980000000     0          
O        O      0.419820000000     0.089200000000     0.602230000000     0          
O        O      0.412075000000     0.086510000000     0.534283333333     0          
O        O      0.456765000000     0.049160000000     0.560330000000     0          
O        O      0.401600000000     0.078550000000     0.333333333333     0          
O        O      0.408095000000     0.000000000000     0.626216666667     0          
O        O      0.449280000000     0.335050000000     0.561826666667     0          
O        O      0.424335000000     0.413740000000     0.534403333333     0          
O        O      0.473365000000     0.422250000000     0.560416666667     0          
O        O      0.468345000000     0.312690000000     0.500000000000     0          
O        O      0.459675000000     0.240650000000     0.545790000000     0          
O        O      0.000000000000     0.304080000000     0.554780000000     0          
O        O      0.000000000000     0.177130000000     0.554680000000     0          
O        O      0.468195000000     0.168460000000     0.500000000000     0          
O        O      0.381175000000     0.442280000000     0.500000000000     0          
Si       Si     0.434485000000     0.907120000000     0.564633333333     0          
Si       Si     0.399420000000     0.941800000000     0.627036666667     0          
Si       Si     0.469295000000     0.816640000000     0.540810000000     0          
Si       Si     0.469305000000     0.702070000000     0.540846666667     0          
Si       Si     0.444490000000     0.605300000000     0.564770000000     0          
Si       Si     0.412325000000     0.557800000000     0.626296666667     0          
O        O      0.381360000000     0.564100000000     0.613490000000     0          
O        O      0.431815000000     0.592360000000     0.602563333333     0          
O        O      0.449175000000     0.853300000000     0.561980000000     0          
O        O      0.419820000000     0.910800000000     0.602230000000     0          
O        O      0.412075000000     0.913490000000     0.534283333333     0          
O        O      0.456765000000     0.950840000000     0.560330000000     0          
O        O      0.449280000000     0.664950000000     0.561826666667     0          
O        O      0.424335000000     0.586260000000     0.534403333333     0          
O        O      0.473365000000     0.577750000000     0.560416666667     0          
O        O      0.459675000000     0.759350000000     0.545790000000     0          
Si       Si     0.065515000000     0.092880000000     0.564633333333     0          
Si       Si     0.100580000000     0.058200000000     0.627036666667     0          
Si       Si     0.030705000000     0.183360000000     0.540810000000     0          
Si       Si     0.030695000000     0.297930000000     0.540846666667     0          
Si       Si     0.055510000000     0.394700000000     0.564770000000     0          
Si       Si     0.087675000000     0.442200000000     0.626296666667     0          
O        O      0.118640000000     0.435900000000     0.613490000000     0          
O        O      0.068185000000     0.407640000000     0.602563333333     0          
O        O      0.050825000000     0.146700000000     0.561980000000     0          
O        O      0.080180000000     0.089200000000     0.602230000000     0          
O        O      0.087925000000     0.086510000000     0.534283333333     0          
O        O      0.043235000000     0.049160000000     0.560330000000     0          
O        O      0.050720000000     0.335050000000     0.561826666667     0          
O        O      0.075665000000     0.413740000000     0.534403333333     0          
O        O      0.026635000000     0.422250000000     0.560416666667     0          
O        O      0.040325000000     0.240650000000     0.545790000000     0          
Si       Si     0.434485000000     0.092880000000     0.435366666667     0          
Si       Si     0.399420000000     0.058200000000     0.372963333333     0          
Si       Si     0.469295000000     0.183360000000     0.459190000000     0          
Si       Si     0.469305000000     0.297930000000     0.459153333333     0          
Si       Si     0.444490000000     0.394700000000     0.435230000000     0          
Si       Si     0.412325000000     0.442200000000     0.373703333333     0          
O        O      0.381360000000     0.435900000000     0.386510000000     0          
O        O      0.431815000000     0.407640000000     0.397436666667     0          
O        O      0.449175000000     0.146700000000     0.438020000000     0          
O        O      0.419820000000     0.089200000000     0.397770000000     0          
O        O      0.412075000000     0.086510000000     0.465716666667     0          
O        O      0.456765000000     0.049160000000     0.439670000000     0          
O        O      0.449280000000     0.335050000000     0.438173333333     0          
O        O      0.424335000000     0.413740000000     0.465596666667     0          
O        O      0.473365000000     0.422250000000     0.439583333333     0          
O        O      0.459675000000     0.240650000000     0.454210000000     0          
Si       Si     0.065515000000     0.907120000000     0.435366666667     0          
Si       Si     0.100580000000     0.941800000000     0.372963333333     0          
Si       Si     0.030705000000     0.816640000000     0.459190000000     0          
Si       Si     0.030695000000     0.702070000000     0.459153333333     0          
Si       Si     0.055510000000     0.605300000000     0.435230000000     0          
Si       Si     0.087675000000     0.557800000000     0.373703333333     0          
O        O      0.118640000000     0.564100000000     0.386510000000     0          
O        O      0.068185000000     0.592360000000     0.397436666667     0          
O        O      0.050825000000     0.853300000000     0.438020000000     0          
O        O      0.080180000000     0.910800000000     0.397770000000     0          
O        O      0.087925000000     0.913490000000     0.465716666667     0          
O        O      0.043235000000     0.950840000000     0.439670000000     0          
O        O      0.050720000000     0.664950000000     0.438173333333     0          
O        O      0.075665000000     0.586260000000     0.465596666667     0          
O        O      0.026635000000     0.577750000000     0.439583333333     0          
O        O      0.040325000000     0.759350000000     0.454210000000     0          
Si       Si     0.315515000000     0.592880000000     0.435366666667     0          
Si       Si     0.350580000000     0.558200000000     0.372963333333     0          
Si       Si     0.280705000000     0.683360000000     0.459190000000     0          
Si       Si     0.280695000000     0.797930000000     0.459153333333     0          
Si       Si     0.305510000000     0.894700000000     0.435230000000     0          
Si       Si     0.337675000000     0.942200000000     0.373703333333     0          
Si       Si     0.348520000000     0.557270000000     0.500000000000     0          
Si       Si     0.336170000000     0.942730000000     0.500000000000     0          
Si       Si     0.282615000000     0.500000000000     0.460006666667     0          
Si       Si     0.250000000000     0.939790000000     0.460670000000     0          
O        O      0.368640000000     0.935900000000     0.386510000000     0          
O        O      0.328655000000     0.000000000000     0.377536666667     0          
O        O      0.335210000000     0.925350000000     0.333333333333     0          
O        O      0.318185000000     0.907640000000     0.397436666667     0          
O        O      0.300825000000     0.646700000000     0.438020000000     0          
O        O      0.330180000000     0.589200000000     0.397770000000     0          
O        O      0.337925000000     0.586510000000     0.465716666667     0          
O        O      0.293235000000     0.549160000000     0.439670000000     0          
O        O      0.348400000000     0.578550000000     0.333333333333     0          
O        O      0.341905000000     0.500000000000     0.373783333333     0          
O        O      0.250000000000     0.500000000000     0.459540000000     0          
O        O      0.293020000000     0.500000000000     0.500000000000     0          
O        O      0.300720000000     0.835050000000     0.438173333333     0          
O        O      0.325665000000     0.913740000000     0.465596666667     0          
O        O      0.276635000000     0.922250000000     0.439583333333     0          
O        O      0.281655000000     0.812690000000     0.500000000000     0          
O        O      0.290325000000     0.740650000000     0.454210000000     0          
O        O      0.250000000000     0.804080000000     0.445220000000     0          
O        O      0.250000000000     0.677130000000     0.445320000000     0          
O        O      0.281805000000     0.668460000000     0.500000000000     0          
O        O      0.368825000000     0.942280000000     0.500000000000     0          
O        O      0.325725000000     0.000000000000     0.500000000000     0          
O        O      0.338075000000     0.500000000000     0.500000000000     0          
O        O      0.250000000000     0.917810000000     0.500000000000     0          
O        O      0.250000000000     0.000000000000     0.462860000000     0          
Si       Si     0.184485000000     0.407120000000     0.435366666667     0          
Si       Si     0.149420000000     0.441800000000     0.372963333333     0          
Si       Si     0.219295000000     0.316640000000     0.459190000000     0          
Si       Si     0.219305000000     0.202070000000     0.459153333333     0          
Si       Si     0.194490000000     0.105300000000     0.435230000000     0          
Si       Si     0.162325000000     0.057800000000     0.373703333333     0          
Si       Si     0.151480000000     0.442730000000     0.500000000000     0          
Si       Si     0.163830000000     0.057270000000     0.500000000000     0          
Si       Si     0.217385000000     0.500000000000     0.460006666667     0          
Si       Si     0.250000000000     0.060210000000     0.460670000000     0          
O        O      0.131360000000     0.064100000000     0.386510000000     0          
O        O      0.171345000000     0.000000000000     0.377536666667     0          
O        O      0.164790000000     0.074650000000     0.333333333333     0          
O        O      0.181815000000     0.092360000000     0.397436666667     0          
O        O      0.199175000000     0.353300000000     0.438020000000     0          
O        O      0.169820000000     0.410800000000     0.397770000000     0          
O        O      0.162075000000     0.413490000000     0.465716666667     0          
O        O      0.206765000000     0.450840000000     0.439670000000     0          
O        O      0.151600000000     0.421450000000     0.333333333333     0          
O        O      0.158095000000     0.500000000000     0.373783333333     0          
O        O      0.206980000000     0.500000000000     0.500000000000     0          
O        O      0.199280000000     0.164950000000     0.438173333333     0          
O        O      0.174335000000     0.086260000000     0.465596666667     0          
O        O      0.223365000000     0.077750000000     0.439583333333     0          
O        O      0.218345000000     0.187310000000     0.500000000000     0          
O        O      0.209675000000     0.259350000000     0.454210000000     0          
O        O      0.250000000000     0.195920000000     0.445220000000     0          
O        O      0.250000000000     0.322870000000     0.445320000000     0          
O        O      0.218195000000     0.331540000000     0.500000000000     0          
O        O      0.131175000000     0.057720000000     0.500000000000     0          
O        O      0.174275000000     0.000000000000     0.500000000000     0          
O        O      0.161925000000     0.500000000000     0.500000000000     0          
O        O      0.250000000000     0.082190000000     0.500000000000     0          
Si       Si     0.315515000000     0.407120000000     0.564633333333     0          
Si       Si     0.350580000000     0.441800000000     0.627036666667     0          
Si       Si     0.280705000000     0.316640000000     0.540810000000     0          
Si       Si     0.280695000000     0.202070000000     0.540846666667     0          
Si       Si     0.305510000000     0.105300000000     0.564770000000     0          
Si       Si     0.337675000000     0.057800000000     0.626296666667     0          
Si       Si     0.348520000000     0.442730000000     0.500000000000     0          
Si       Si     0.336170000000     0.057270000000     0.500000000000     0          
Si       Si     0.282615000000     0.500000000000     0.539993333333     0          
Si       Si     0.250000000000     0.060210000000     0.539330000000     0          
O        O      0.368640000000     0.064100000000     0.613490000000     0          
O        O      0.328655000000     0.000000000000     0.622463333333     0          
O        O      0.335210000000     0.074650000000     0.333333333333     0          
O        O      0.318185000000     0.092360000000     0.602563333333     0          
O        O      0.300825000000     0.353300000000     0.561980000000     0          
O        O      0.330180000000     0.410800000000     0.602230000000     0          
O        O      0.337925000000     0.413490000000     0.534283333333     0          
O        O      0.293235000000     0.450840000000     0.560330000000     0          
O        O      0.348400000000     0.421450000000     0.333333333333     0          
O        O      0.341905000000     0.500000000000     0.626216666667     0          
O        O      0.250000000000     0.500000000000     0.540460000000     0          
O        O      0.300720000000     0.164950000000     0.561826666667     0          
O        O      0.325665000000     0.086260000000     0.534403333333     0          
O        O      0.276635000000     0.077750000000     0.560416666667     0          
O        O      0.281655000000     0.187310000000     0.500000000000     0          
O        O      0.290325000000     0.259350000000     0.545790000000     0          
O        O      0.250000000000     0.195920000000     0.554780000000     0          
O        O      0.250000000000     0.322870000000     0.554680000000     0          
O        O      0.281805000000     0.331540000000     0.500000000000     0          
O        O      0.368825000000     0.057720000000     0.500000000000     0          
O        O      0.250000000000     0.000000000000     0.537140000000     0          
Si       Si     0.184485000000     0.592880000000     0.564633333333     0          
Si       Si     0.149420000000     0.558200000000     0.627036666667     0          
Si       Si     0.219295000000     0.683360000000     0.540810000000     0          
Si       Si     0.219305000000     0.797930000000     0.540846666667     0          
Si       Si     0.194490000000     0.894700000000     0.564770000000     0          
Si       Si     0.162325000000     0.942200000000     0.626296666667     0          
Si       Si     0.151480000000     0.557270000000     0.500000000000     0          
Si       Si     0.163830000000     0.942730000000     0.500000000000     0          
Si       Si     0.217385000000     0.500000000000     0.539993333333     0          
Si       Si     0.250000000000     0.939790000000     0.539330000000     0          
O        O      0.131360000000     0.935900000000     0.613490000000     0          
O        O      0.171345000000     0.000000000000     0.622463333333     0          
O        O      0.164790000000     0.925350000000     0.333333333333     0          
O        O      0.181815000000     0.907640000000     0.602563333333     0          
O        O      0.199175000000     0.646700000000     0.561980000000     0          
O        O      0.169820000000     0.589200000000     0.602230000000     0          
O        O      0.162075000000     0.586510000000     0.534283333333     0          
O        O      0.206765000000     0.549160000000     0.560330000000     0          
O        O      0.151600000000     0.578550000000     0.333333333333     0          
O        O      0.158095000000     0.500000000000     0.626216666667     0          
O        O      0.199280000000     0.835050000000     0.561826666667     0          
O        O      0.174335000000     0.913740000000     0.534403333333     0          
O        O      0.223365000000     0.922250000000     0.560416666667     0          
O        O      0.218345000000     0.812690000000     0.500000000000     0          
O        O      0.209675000000     0.740650000000     0.545790000000     0          
O        O      0.250000000000     0.804080000000     0.554780000000     0          
O        O      0.250000000000     0.677130000000     0.554680000000     0          
O        O      0.218195000000     0.668460000000     0.500000000000     0          
O        O      0.131175000000     0.942280000000     0.500000000000     0          
Si       Si     0.184485000000     0.407120000000     0.564633333333     0          
Si       Si     0.149420000000     0.441800000000     0.627036666667     0          
Si       Si     0.219295000000     0.316640000000     0.540810000000     0          
Si       Si     0.219305000000     0.202070000000     0.540846666667     0          
Si       Si     0.194490000000     0.105300000000     0.564770000000     0          
Si       Si     0.162325000000     0.057800000000     0.626296666667     0          
O        O      0.131360000000     0.064100000000     0.613490000000     0          
O        O      0.181815000000     0.092360000000     0.602563333333     0          
O        O      0.199175000000     0.353300000000     0.561980000000     0          
O        O      0.169820000000     0.410800000000     0.602230000000     0          
O        O      0.162075000000     0.413490000000     0.534283333333     0          
O        O      0.206765000000     0.450840000000     0.560330000000     0          
O        O      0.199280000000     0.164950000000     0.561826666667     0          
O        O      0.174335000000     0.086260000000     0.534403333333     0          
O        O      0.223365000000     0.077750000000     0.560416666667     0          
O        O      0.209675000000     0.259350000000     0.545790000000     0          
Si       Si     0.315515000000     0.592880000000     0.564633333333     0          
Si       Si     0.350580000000     0.558200000000     0.627036666667     0          
Si       Si     0.280705000000     0.683360000000     0.540810000000     0          
Si       Si     0.280695000000     0.797930000000     0.540846666667     0          
Si       Si     0.305510000000     0.894700000000     0.564770000000     0          
Si       Si     0.337675000000     0.942200000000     0.626296666667     0          
O        O      0.368640000000     0.935900000000     0.613490000000     0          
O        O      0.318185000000     0.907640000000     0.602563333333     0          
O        O      0.300825000000     0.646700000000     0.561980000000     0          
O        O      0.330180000000     0.589200000000     0.602230000000     0          
O        O      0.337925000000     0.586510000000     0.534283333333     0          
O        O      0.293235000000     0.549160000000     0.560330000000     0          
O        O      0.300720000000     0.835050000000     0.561826666667     0          
O        O      0.325665000000     0.913740000000     0.534403333333     0          
O        O      0.276635000000     0.922250000000     0.560416666667     0          
O        O      0.290325000000     0.740650000000     0.545790000000     0          
Si       Si     0.184485000000     0.592880000000     0.435366666667     0          
Si       Si     0.149420000000     0.558200000000     0.372963333333     0          
Si       Si     0.219295000000     0.683360000000     0.459190000000     0          
Si       Si     0.219305000000     0.797930000000     0.459153333333     0          
Si       Si     0.194490000000     0.894700000000     0.435230000000     0          
Si       Si     0.162325000000     0.942200000000     0.373703333333     0          
O        O      0.131360000000     0.935900000000     0.386510000000     0          
O        O      0.181815000000     0.907640000000     0.397436666667     0          
O        O      0.199175000000     0.646700000000     0.438020000000     0          
O        O      0.169820000000     0.589200000000     0.397770000000     0          
O        O      0.162075000000     0.586510000000     0.465716666667     0          
O        O      0.206765000000     0.549160000000     0.439670000000     0          
O        O      0.199280000000     0.835050000000     0.438173333333     0          
O        O      0.174335000000     0.913740000000     0.465596666667     0          
O        O      0.223365000000     0.922250000000     0.439583333333     0          
O        O      0.209675000000     0.740650000000     0.454210000000     0          
Si       Si     0.315515000000     0.407120000000     0.435366666667     0          
Si       Si     0.350580000000     0.441800000000     0.372963333333     0          
Si       Si     0.280705000000     0.316640000000     0.459190000000     0          
Si       Si     0.280695000000     0.202070000000     0.459153333333     0          
Si       Si     0.305510000000     0.105300000000     0.435230000000     0          
Si       Si     0.337675000000     0.057800000000     0.373703333333     0          
O        O      0.368640000000     0.064100000000     0.386510000000     0          
O        O      0.318185000000     0.092360000000     0.397436666667     0          
O        O      0.300825000000     0.353300000000     0.438020000000     0          
O        O      0.330180000000     0.410800000000     0.397770000000     0          
O        O      0.337925000000     0.413490000000     0.465716666667     0          
O        O      0.293235000000     0.450840000000     0.439670000000     0          
O        O      0.300720000000     0.164950000000     0.438173333333     0          
O        O      0.325665000000     0.086260000000     0.465596666667     0          
O        O      0.276635000000     0.077750000000     0.439583333333     0          
O        O      0.290325000000     0.259350000000     0.454210000000     0          
Si       Si     0.065515000000     0.092880000000     0.768700000000     0          
Si       Si     0.100580000000     0.058200000000     0.706296666667     0          
Si       Si     0.030705000000     0.183360000000     0.792523333333     0          
Si       Si     0.030695000000     0.297930000000     0.792486666667     0          
Si       Si     0.055510000000     0.394700000000     0.768563333333     0          
Si       Si     0.087675000000     0.442200000000     0.707036666667     0          
Si       Si     0.098520000000     0.057270000000     0.833333333333     0          
Si       Si     0.086170000000     0.442730000000     0.833333333333     0          
Si       Si     0.032615000000     0.000000000000     0.793340000000     0          
Si       Si     0.000000000000     0.439790000000     0.794003333333     0          
O        O      0.118640000000     0.435900000000     0.719843333333     0          
O        O      0.078655000000     0.500000000000     0.710870000000     0          
O        O      0.085210000000     0.425350000000     0.666666666667     0          
O        O      0.068185000000     0.407640000000     0.730770000000     0          
O        O      0.050825000000     0.146700000000     0.771353333333     0          
O        O      0.080180000000     0.089200000000     0.731103333333     0          
O        O      0.087925000000     0.086510000000     0.799050000000     0          
O        O      0.043235000000     0.049160000000     0.773003333333     0          
O        O      0.098400000000     0.078550000000     0.666666666667     0          
O        O      0.091905000000     0.000000000000     0.707116666667     0          
O        O      0.000000000000     0.000000000000     0.792873333333     0          
O        O      0.043020000000     0.000000000000     0.833333333333     0          
O        O      0.050720000000     0.335050000000     0.771506666667     0          
O        O      0.075665000000     0.413740000000     0.798930000000     0          
O        O      0.026635000000     0.422250000000     0.772916666667     0          
O        O      0.031655000000     0.312690000000     0.833333333333     0          
O        O      0.040325000000     0.240650000000     0.787543333333     0          
O        O      0.000000000000     0.304080000000     0.778553333333     0          
O        O      0.000000000000     0.177130000000     0.778653333333     0          
O        O      0.031805000000     0.168460000000     0.833333333333     0          
O        O      0.118825000000     0.442280000000     0.833333333333     0          
O        O      0.075725000000     0.500000000000     0.833333333333     0          
O        O      0.088075000000     0.000000000000     0.833333333333     0          
O        O      0.000000000000     0.417810000000     0.833333333333     0          
O        O      0.000000000000     0.500000000000     0.796193333333     0          
Si       Si     0.434485000000     0.907120000000     0.768700000000     0          
Si       Si     0.399420000000     0.941800000000     0.706296666667     0          
Si       Si     0.469295000000     0.816640000000     0.792523333333     0          
Si       Si     0.469305000000     0.702070000000     0.792486666667     0          
Si       Si     0.444490000000     0.605300000000     0.768563333333     0          
Si       Si     0.412325000000     0.557800000000     0.707036666667     0          
Si       Si     0.401480000000     0.942730000000     0.833333333333     0          
Si       Si     0.413830000000     0.557270000000     0.833333333333     0          
Si       Si     0.467385000000     0.000000000000     0.793340000000     0          
Si       Si     0.000000000000     0.560210000000     0.794003333333     0          
O        O      0.381360000000     0.564100000000     0.719843333333     0          
O        O      0.421345000000     0.500000000000     0.710870000000     0          
O        O      0.414790000000     0.574650000000     0.666666666667     0          
O        O      0.431815000000     0.592360000000     0.730770000000     0          
O        O      0.449175000000     0.853300000000     0.771353333333     0          
O        O      0.419820000000     0.910800000000     0.731103333333     0          
O        O      0.412075000000     0.913490000000     0.799050000000     0          
O        O      0.456765000000     0.950840000000     0.773003333333     0          
O        O      0.401600000000     0.921450000000     0.666666666667     0          
O        O      0.408095000000     0.000000000000     0.707116666667     0          
O        O      0.456980000000     0.000000000000     0.833333333333     0          
O        O      0.449280000000     0.664950000000     0.771506666667     0          
O        O      0.424335000000     0.586260000000     0.798930000000     0          
O        O      0.473365000000     0.577750000000     0.772916666667     0          
O        O      0.468345000000     0.687310000000     0.833333333333     0          
O        O      0.459675000000     0.759350000000     0.787543333333     0          
O        O      0.000000000000     0.695920000000     0.778553333333     0          
O        O      0.000000000000     0.822870000000     0.778653333333     0          
O        O      0.468195000000     0.831540000000     0.833333333333     0          
O        O      0.381175000000     0.557720000000     0.833333333333     0          
O        O      0.424275000000     0.500000000000     0.833333333333     0          
O        O      0.411925000000     0.000000000000     0.833333333333     0          
O        O      0.000000000000     0.582190000000     0.833333333333     0          
Si       Si     0.065515000000     0.907120000000     0.897966666667     0          
Si       Si     0.100580000000     0.941800000000     0.960370000000     0          
Si       Si     0.030705000000     0.816640000000     0.874143333333     0          
Si       Si     0.030695000000     0.702070000000     0.874180000000     0          
Si       Si     0.055510000000     0.605300000000     0.898103333333     0          
Si       Si     0.087675000000     0.557800000000     0.959630000000     0          
Si       Si     0.098520000000     0.942730000000     0.833333333333     0          
Si       Si     0.086170000000     0.557270000000     0.833333333333     0          
Si       Si     0.032615000000     0.000000000000     0.873326666667     0          
Si       Si     0.000000000000     0.560210000000     0.872663333333     0          
O        O      0.118640000000     0.564100000000     0.946823333333     0          
O        O      0.078655000000     0.500000000000     0.955796666667     0          
O        O      0.085210000000     0.574650000000     0.666666666667     0          
O        O      0.068185000000     0.592360000000     0.935896666667     0          
O        O      0.050825000000     0.853300000000     0.895313333333     0          
O        O      0.080180000000     0.910800000000     0.935563333333     0          
O        O      0.087925000000     0.913490000000     0.867616666667     0          
O        O      0.043235000000     0.950840000000     0.893663333333     0          
O        O      0.098400000000     0.921450000000     0.666666666667     0          
O        O      0.091905000000     0.000000000000     0.959550000000     0          
O        O      0.000000000000     0.000000000000     0.873793333333     0          
O        O      0.050720000000     0.664950000000     0.895160000000     0          
O        O      0.075665000000     0.586260000000     0.867736666667     0          
O        O      0.026635000000     0.577750000000     0.893750000000     0          
O        O      0.031655000000     0.687310000000     0.833333333333     0          
O        O      0.040325000000     0.759350000000     0.879123333333     0          
O        O      0.000000000000     0.695920000000     0.888113333333     0          
O        O      0.000000000000     0.822870000000     0.888013333333     0          
O        O      0.031805000000     0.831540000000     0.833333333333     0          
O        O      0.118825000000     0.557720000000     0.833333333333     0          
O        O      0.000000000000     0.500000000000     0.870473333333     0          
Si       Si     0.434485000000     0.092880000000     0.897966666667     0          
Si       Si     0.399420000000     0.058200000000     0.960370000000     0          
Si       Si     0.469295000000     0.183360000000     0.874143333333     0          
Si       Si     0.469305000000     0.297930000000     0.874180000000     0          
Si       Si     0.444490000000     0.394700000000     0.898103333333     0          
Si       Si     0.412325000000     0.442200000000     0.959630000000     0          
Si       Si     0.401480000000     0.057270000000     0.833333333333     0          
Si       Si     0.413830000000     0.442730000000     0.833333333333     0          
Si       Si     0.467385000000     0.000000000000     0.873326666667     0          
Si       Si     0.000000000000     0.439790000000     0.872663333333     0          
O        O      0.381360000000     0.435900000000     0.946823333333     0          
O        O      0.421345000000     0.500000000000     0.955796666667     0          
O        O      0.414790000000     0.425350000000     0.666666666667     0          
O        O      0.431815000000     0.407640000000     0.935896666667     0          
O        O      0.449175000000     0.146700000000     0.895313333333     0          
O        O      0.419820000000     0.089200000000     0.935563333333     0          
O        O      0.412075000000     0.086510000000     0.867616666667     0          
O        O      0.456765000000     0.049160000000     0.893663333333     0          
O        O      0.401600000000     0.078550000000     0.666666666667     0          
O        O      0.408095000000     0.000000000000     0.959550000000     0          
O        O      0.449280000000     0.335050000000     0.895160000000     0          
O        O      0.424335000000     0.413740000000     0.867736666667     0          
O        O      0.473365000000     0.422250000000     0.893750000000     0          
O        O      0.468345000000     0.312690000000     0.833333333333     0          
O        O      0.459675000000     0.240650000000     0.879123333333     0          
O        O      0.000000000000     0.304080000000     0.888113333333     0          
O        O      0.000000000000     0.177130000000     0.888013333333     0          
O        O      0.468195000000     0.168460000000     0.833333333333     0          
O        O      0.381175000000     0.442280000000     0.833333333333     0          
Si       Si     0.434485000000     0.907120000000     0.897966666667     0          
Si       Si     0.399420000000     0.941800000000     0.960370000000     0          
Si       Si     0.469295000000     0.816640000000     0.874143333333     0          
Si       Si     0.469305000000     0.702070000000     0.874180000000     0          
Si       Si     0.444490000000     0.605300000000     0.898103333333     0          
Si       Si     0.412325000000     0.557800000000     0.959630000000     0          
O        O      0.381360000000     0.564100000000     0.946823333333     0          
O        O      0.431815000000     0.592360000000     0.935896666667     0          
O        O      0.449175000000     0.853300000000     0.895313333333     0          
O        O      0.419820000000     0.910800000000     0.935563333333     0          
O        O      0.412075000000     0.913490000000     0.867616666667     0          
O        O      0.456765000000     0.950840000000     0.893663333333     0          
O        O      0.449280000000     0.664950000000     0.895160000000     0          
O        O      0.424335000000     0.586260000000     0.867736666667     0          
O        O      0.473365000000     0.577750000000     0.893750000000     0          
O        O      0.459675000000     0.759350000000     0.879123333333     0          
Si       Si     0.065515000000     0.092880000000     0.897966666667     0          
Si       Si     0.100580000000     0.058200000000     0.960370000000     0          
Si       Si     0.030705000000     0.183360000000     0.874143333333     0          
Si       Si     0.030695000000     0.297930000000     0.874180000000     0          
Si       Si     0.055510000000     0.394700000000     0.898103333333     0          
Si       Si     0.087675000000     0.442200000000     0.959630000000     0          
O        O      0.118640000000     0.435900000000     0.946823333333     0          
O        O      0.068185000000     0.407640000000     0.935896666667     0          
O        O      0.050825000000     0.146700000000     0.895313333333     0          
O        O      0.080180000000     0.089200000000     0.935563333333     0          
O        O      0.087925000000     0.086510000000     0.867616666667     0          
O        O      0.043235000000     0.049160000000     0.893663333333     0          
O        O      0.050720000000     0.335050000000     0.895160000000     0          
O        O      0.075665000000     0.413740000000     0.867736666667     0          
O        O      0.026635000000     0.422250000000     0.893750000000     0          
O        O      0.040325000000     0.240650000000     0.879123333333     0          
Si       Si     0.434485000000     0.092880000000     0.768700000000     0          
Si       Si     0.399420000000     0.058200000000     0.706296666667     0          
Si       Si     0.469295000000     0.183360000000     0.792523333333     0          
Si       Si     0.469305000000     0.297930000000     0.792486666667     0          
Si       Si     0.444490000000     0.394700000000     0.768563333333     0          
Si       Si     0.412325000000     0.442200000000     0.707036666667     0          
O        O      0.381360000000     0.435900000000     0.719843333333     0          
O        O      0.431815000000     0.407640000000     0.730770000000     0          
O        O      0.449175000000     0.146700000000     0.771353333333     0          
O        O      0.419820000000     0.089200000000     0.731103333333     0          
O        O      0.412075000000     0.086510000000     0.799050000000     0          
O        O      0.456765000000     0.049160000000     0.773003333333     0          
O        O      0.449280000000     0.335050000000     0.771506666667     0          
O        O      0.424335000000     0.413740000000     0.798930000000     0          
O        O      0.473365000000     0.422250000000     0.772916666667     0          
O        O      0.459675000000     0.240650000000     0.787543333333     0          
Si       Si     0.065515000000     0.907120000000     0.768700000000     0          
Si       Si     0.100580000000     0.941800000000     0.706296666667     0          
Si       Si     0.030705000000     0.816640000000     0.792523333333     0          
Si       Si     0.030695000000     0.702070000000     0.792486666667     0          
Si       Si     0.055510000000     0.605300000000     0.768563333333     0          
Si       Si     0.087675000000     0.557800000000     0.707036666667     0          
O        O      0.118640000000     0.564100000000     0.719843333333     0          
O        O      0.068185000000     0.592360000000     0.730770000000     0          
O        O      0.050825000000     0.853300000000     0.771353333333     0          
O        O      0.080180000000     0.910800000000     0.731103333333     0          
O        O      0.087925000000     0.913490000000     0.799050000000     0          
O        O      0.043235000000     0.950840000000     0.773003333333     0          
O        O      0.050720000000     0.664950000000     0.771506666667     0          
O        O      0.075665000000     0.586260000000     0.798930000000     0          
O        O      0.026635000000     0.577750000000     0.772916666667     0          
O        O      0.040325000000     0.759350000000     0.787543333333     0          
Si       Si     0.315515000000     0.592880000000     0.768700000000     0          
Si       Si     0.350580000000     0.558200000000     0.706296666667     0          
Si       Si     0.280705000000     0.683360000000     0.792523333333     0          
Si       Si     0.280695000000     0.797930000000     0.792486666667     0          
Si       Si     0.305510000000     0.894700000000     0.768563333333     0          
Si       Si     0.337675000000     0.942200000000     0.707036666667     0          
Si       Si     0.348520000000     0.557270000000     0.833333333333     0          
Si       Si     0.336170000000     0.942730000000     0.833333333333     0          
Si       Si     0.282615000000     0.500000000000     0.793340000000     0          
Si       Si     0.250000000000     0.939790000000     0.794003333333     0          
O        O      0.368640000000     0.935900000000     0.719843333333     0          
O        O      0.328655000000     0.000000000000     0.710870000000     0          
O        O      0.335210000000     0.925350000000     0.666666666667     0          
O        O      0.318185000000     0.907640000000     0.730770000000     0          
O        O      0.300825000000     0.646700000000     0.771353333333     0          
O        O      0.330180000000     0.589200000000     0.731103333333     0          
O        O      0.337925000000     0.586510000000     0.799050000000     0          
O        O      0.293235000000     0.549160000000     0.773003333333     0          
O        O      0.348400000000     0.578550000000     0.666666666667     0          
O        O      0.341905000000     0.500000000000     0.707116666667     0          
O        O      0.250000000000     0.500000000000     0.792873333333     0          
O        O      0.293020000000     0.500000000000     0.833333333333     0          
O        O      0.300720000000     0.835050000000     0.771506666667     0          
O        O      0.325665000000     0.913740000000     0.798930000000     0          
O        O      0.276635000000     0.922250000000     0.772916666667     0          
O        O      0.281655000000     0.812690000000     0.833333333333     0          
O        O      0.290325000000     0.740650000000     0.787543333333     0          
O        O      0.250000000000     0.804080000000     0.778553333333     0          
O        O      0.250000000000     0.677130000000     0.778653333333     0          
O        O      0.281805000000     0.668460000000     0.833333333333     0          
O        O      0.368825000000     0.942280000000     0.833333333333     0          
O        O      0.325725000000     0.000000000000     0.833333333333     0          
O        O      0.338075000000     0.500000000000     0.833333333333     0          
O        O      0.250000000000     0.917810000000     0.833333333333     0          
O        O      0.250000000000     0.000000000000     0.796193333333     0          
Si       Si     0.184485000000     0.407120000000     0.768700000000     0          
Si       Si     0.149420000000     0.441800000000     0.706296666667     0          
Si       Si     0.219295000000     0.316640000000     0.792523333333     0          
Si       Si     0.219305000000     0.202070000000     0.792486666667     0          
Si       Si     0.194490000000     0.105300000000     0.768563333333     0          
Si       Si     0.162325000000     0.057800000000     0.707036666667     0          
Si       Si     0.151480000000     0.442730000000     0.833333333333     0          
Si       Si     0.163830000000     0.057270000000     0.833333333333     0          
Si       Si     0.217385000000     0.500000000000     0.793340000000     0          
Si       Si     0.250000000000     0.060210000000     0.794003333333     0          
O        O      0.131360000000     0.064100000000     0.719843333333     0          
O        O      0.171345000000     0.000000000000     0.710870000000     0          
O        O      0.164790000000     0.074650000000     0.666666666667     0          
O        O      0.181815000000     0.092360000000     0.730770000000     0          
O        O      0.199175000000     0.353300000000     0.771353333333     0          
O        O      0.169820000000     0.410800000000     0.731103333333     0          
O        O      0.162075000000     0.413490000000     0.799050000000     0          
O        O      0.206765000000     0.450840000000     0.773003333333     0          
O        O      0.151600000000     0.421450000000     0.666666666667     0          
O        O      0.158095000000     0.500000000000     0.707116666667     0          
O        O      0.206980000000     0.500000000000     0.833333333333     0          
O        O      0.199280000000     0.164950000000     0.771506666667     0          
O        O      0.174335000000     0.086260000000     0.798930000000     0          
O        O      0.223365000000     0.077750000000     0.772916666667     0          
O        O      0.218345000000     0.187310000000     0.833333333333     0          
O        O      0.209675000000     0.259350000000     0.787543333333     0          
O        O      0.250000000000     0.195920000000     0.778553333333     0          
O        O      0.250000000000     0.322870000000     0.778653333333     0          
O        O      0.218195000000     0.331540000000     0.833333333333     0          
O        O      0.131175000000     0.057720000000     0.833333333333     0          
O        O      0.174275000000     0.000000000000     0.833333333333     0          
O        O      0.161925000000     0.500000000000     0.833333333333     0          
O        O      0.250000000000     0.082190000000     0.833333333333     0          
Si       Si     0.315515000000     0.407120000000     0.897966666667     0          
Si       Si     0.350580000000     0.441800000000     0.960370000000     0          
Si       Si     0.280705000000     0.316640000000     0.874143333333     0          
Si       Si     0.280695000000     0.202070000000     0.874180000000     0          
Si       Si     0.305510000000     0.105300000000     0.898103333333     0          
Si       Si     0.337675000000     0.057800000000     0.959630000000     0          
Si       Si     0.348520000000     0.442730000000     0.833333333333     0          
Si       Si     0.336170000000     0.057270000000     0.833333333333     0          
Si       Si     0.282615000000     0.500000000000     0.873326666667     0          
Si       Si     0.250000000000     0.060210000000     0.872663333333     0          
O        O      0.368640000000     0.064100000000     0.946823333333     0          
O        O      0.328655000000     0.000000000000     0.955796666667     0          
O        O      0.335210000000     0.074650000000     0.666666666667     0          
O        O      0.318185000000     0.092360000000     0.935896666667     0          
O        O      0.300825000000     0.353300000000     0.895313333333     0          
O        O      0.330180000000     0.410800000000     0.935563333333     0          
O        O      0.337925000000     0.413490000000     0.867616666667     0          
O        O      0.293235000000     0.450840000000     0.893663333333     0          
O        O      0.348400000000     0.421450000000     0.666666666667     0          
O        O      0.341905000000     0.500000000000     0.959550000000     0          
O        O      0.250000000000     0.500000000000     0.873793333333     0          
O        O      0.300720000000     0.164950000000     0.895160000000     0          
O        O      0.325665000000     0.086260000000     0.867736666667     0          
O        O      0.276635000000     0.077750000000     0.893750000000     0          
O        O      0.281655000000     0.187310000000     0.833333333333     0          
O        O      0.290325000000     0.259350000000     0.879123333333     0          
O        O      0.250000000000     0.195920000000     0.888113333333     0          
O        O      0.250000000000     0.322870000000     0.888013333333     0          
O        O      0.281805000000     0.331540000000     0.833333333333     0          
O        O      0.368825000000     0.057720000000     0.833333333333     0          
O        O      0.250000000000     0.000000000000     0.870473333333     0          
Si       Si     0.184485000000     0.592880000000     0.897966666667     0          
Si       Si     0.149420000000     0.558200000000     0.960370000000     0          
Si       Si     0.219295000000     0.683360000000     0.874143333333     0          
Si       Si     0.219305000000     0.797930000000     0.874180000000     0          
Si       Si     0.194490000000     0.894700000000     0.898103333333     0          
Si       Si     0.162325000000     0.942200000000     0.959630000000     0          
Si       Si     0.151480000000     0.557270000000     0.833333333333     0          
Si       Si     0.163830000000     0.942730000000     0.833333333333     0          
Si       Si     0.217385000000     0.500000000000     0.873326666667     0          
Si       Si     0.250000000000     0.939790000000     0.872663333333     0          
O        O      0.131360000000     0.935900000000     0.946823333333     0          
O        O      0.171345000000     0.000000000000     0.955796666667     0          
O        O      0.164790000000     0.925350000000     0.666666666667     0          
O        O      0.181815000000     0.907640000000     0.935896666667     0          
O        O      0.199175000000     0.646700000000     0.895313333333     0          
O        O      0.169820000000     0.589200000000     0.935563333333     0          
O        O      0.162075000000     0.586510000000     0.867616666667     0          
O        O      0.206765000000     0.549160000000     0.893663333333     0          
O        O      0.151600000000     0.578550000000     0.666666666667     0          
O        O      0.158095000000     0.500000000000     0.959550000000     0          
O        O      0.199280000000     0.835050000000     0.895160000000     0          
O        O      0.174335000000     0.913740000000     0.867736666667     0          
O        O      0.223365000000     0.922250000000     0.893750000000     0          
O        O      0.218345000000     0.812690000000     0.833333333333     0          
O        O      0.209675000000     0.740650000000     0.879123333333     0          
O        O      0.250000000000     0.804080000000     0.888113333333     0          
O        O      0.250000000000     0.677130000000     0.888013333333     0          
O        O      0.218195000000     0.668460000000     0.833333333333     0          
O        O      0.131175000000     0.942280000000     0.833333333333     0          
Si       Si     0.184485000000     0.407120000000     0.897966666667     0          
Si       Si     0.149420000000     0.441800000000     0.960370000000     0          
Si       Si     0.219295000000     0.316640000000     0.874143333333     0          
Si       Si     0.219305000000     0.202070000000     0.874180000000     0          
Si       Si     0.194490000000     0.105300000000     0.898103333333     0          
Si       Si     0.162325000000     0.057800000000     0.959630000000     0          
O        O      0.131360000000     0.064100000000     0.946823333333     0          
O        O      0.181815000000     0.092360000000     0.935896666667     0          
O        O      0.199175000000     0.353300000000     0.895313333333     0          
O        O      0.169820000000     0.410800000000     0.935563333333     0          
O        O      0.162075000000     0.413490000000     0.867616666667     0          
O        O      0.206765000000     0.450840000000     0.893663333333     0          
O        O      0.199280000000     0.164950000000     0.895160000000     0          
O        O      0.174335000000     0.086260000000     0.867736666667     0          
O        O      0.223365000000     0.077750000000     0.893750000000     0          
O        O      0.209675000000     0.259350000000     0.879123333333     0          
Si       Si     0.315515000000     0.592880000000     0.897966666667     0          
Si       Si     0.350580000000     0.558200000000     0.960370000000     0          
Si       Si     0.280705000000     0.683360000000     0.874143333333     0          
Si       Si     0.280695000000     0.797930000000     0.874180000000     0          
Si       Si     0.305510000000     0.894700000000     0.898103333333     0          
Si       Si     0.337675000000     0.942200000000     0.959630000000     0          
O        O      0.368640000000     0.935900000000     0.946823333333     0          
O        O      0.318185000000     0.907640000000     0.935896666667     0          
O        O      0.300825000000     0.646700000000     0.895313333333     0          
O        O      0.330180000000     0.589200000000     0.935563333333     0          
O        O      0.337925000000     0.586510000000     0.867616666667     0          
O        O      0.293235000000     0.549160000000     0.893663333333     0          
O        O      0.300720000000     0.835050000000     0.895160000000     0          
O        O      0.325665000000     0.913740000000     0.867736666667     0          
O        O      0.276635000000     0.922250000000     0.893750000000     0          
O        O      0.290325000000     0.740650000000     0.879123333333     0          
Si       Si     0.184485000000     0.592880000000     0.768700000000     0          
Si       Si     0.149420000000     0.558200000000     0.706296666667     0          
Si       Si     0.219295000000     0.683360000000     0.792523333333     0          
Si       Si     0.219305000000     0.797930000000     0.792486666667     0          
Si       Si     0.194490000000     0.894700000000     0.768563333333     0          
Si       Si     0.162325000000     0.942200000000     0.707036666667     0          
O        O      0.131360000000     0.935900000000     0.719843333333     0          
O        O      0.181815000000     0.907640000000     0.730770000000     0          
O        O      0.199175000000     0.646700000000     0.771353333333     0          
O        O      0.169820000000     0.589200000000     0.731103333333     0          
O        O      0.162075000000     0.586510000000     0.799050000000     0          
O        O      0.206765000000     0.549160000000     0.773003333333     0          
O        O      0.199280000000     0.835050000000     0.771506666667     0          
O        O      0.174335000000     0.913740000000     0.798930000000     0          
O        O      0.223365000000     0.922250000000     0.772916666667     0          
O        O      0.209675000000     0.740650000000     0.787543333333     0          
Si       Si     0.315515000000     0.407120000000     0.768700000000     0          
Si       Si     0.350580000000     0.441800000000     0.706296666667     0          
Si       Si     0.280705000000     0.316640000000     0.792523333333     0          
Si       Si     0.280695000000     0.202070000000     0.792486666667     0          
Si       Si     0.305510000000     0.105300000000     0.768563333333     0          
Si       Si     0.337675000000     0.057800000000     0.707036666667     0          
O        O      0.368640000000     0.064100000000     0.719843333333     0          
O        O      0.318185000000     0.092360000000     0.730770000000     0          
O        O      0.300825000000     0.353300000000     0.771353333333     0          
O        O      0.330180000000     0.410800000000     0.731103333333     0          
O        O      0.337925000000     0.413490000000     0.799050000000     0          
O        O      0.293235000000     0.450840000000     0.773003333333     0          
O        O      0.300720000000     0.164950000000     0.771506666667     0          
O        O      0.325665000000     0.086260000000     0.798930000000     0          
O        O      0.276635000000     0.077750000000     0.772916666667     0          
O        O      0.290325000000     0.259350000000     0.787543333333     0          
Si       Si     0.565515000000     0.092880000000     0.102033333333     0          
Si       Si     0.600580000000     0.058200000000     0.039630000000     0          
Si       Si     0.530705000000     0.183360000000     0.125856666667     0          
Si       Si     0.530695000000     0.297930000000     0.125820000000     0          
Si       Si     0.555510000000     0.394700000000     0.101896666667     0          
Si       Si     0.587675000000     0.442200000000     0.040370000000     0          
Si       Si     0.598520000000     0.057270000000     0.166666666667     0          
Si       Si     0.586170000000     0.442730000000     0.166666666667     0          
Si       Si     0.532615000000     0.000000000000     0.126673333333     0          
Si       Si     0.500000000000     0.439790000000     0.127336666667     0          
O        O      0.618640000000     0.435900000000     0.053176666667     0          
O        O      0.578655000000     0.500000000000     0.044203333333     0          
O        O      0.585210000000     0.425350000000     0.000000000000     0          
O        O      0.568185000000     0.407640000000     0.064103333333     0          
O        O      0.550825000000     0.146700000000     0.104686666667     0          
O        O      0.580180000000     0.089200000000     0.064436666667     0          
O        O      0.587925000000     0.086510000000     0.132383333333     0          
O        O      0.543235000000     0.049160000000     0.106336666667     0          
O        O      0.598400000000     0.078550000000     0.000000000000     0          
O        O      0.591905000000     0.000000000000     0.040450000000     0          
O        O      0.500000000000     0.000000000000     0.126206666667     0          
O        O      0.543020000000     0.000000000000     0.166666666667     0          
O        O      0.550720000000     0.335050000000     0.104840000000     0          
O        O      0.575665000000     0.413740000000     0.132263333333     0          
O        O      0.526635000000     0.422250000000     0.106250000000     0          
O        O      0.531655000000     0.312690000000     0.166666666667     0          
O        O      0.540325000000     0.240650000000     0.120876666667     0          
O        O      0.500000000000     0.304080000000     0.111886666667     0          
O        O      0.500000000000     0.177130000000     0.111986666667     0          
O        O      0.531805000000     0.168460000000     0.166666666667     0          
O        O      0.618825000000     0.442280000000     0.166666666667     0          
O        O      0.575725000000     0.500000000000     0.166666666667     0          
O        O      0.588075000000     0.000000000000     0.166666666667     0          
O        O      0.500000000000     0.417810000000     0.166666666667     0          
O        O      0.500000000000     0.500000000000     0.129526666667     0          
Si       Si     0.934485000000     0.907120000000     0.102033333333     0          
Si       Si     0.899420000000     0.941800000000     0.039630000000     0          
Si       Si     0.969295000000     0.816640000000     0.125856666667     0          
Si       Si     0.969305000000     0.702070000000     0.125820000000     0          
Si       Si     0.944490000000     0.605300000000     0.101896666667     0          
Si       Si     0.912325000000     0.557800000000     0.040370000000     0          
Si       Si     0.901480000000     0.942730000000     0.166666666667     0          
Si       Si     0.913830000000     0.557270000000     0.166666666667     0          
Si       Si     0.967385000000     0.000000000000     0.126673333333     0          
Si       Si     0.500000000000     0.560210000000     0.127336666667     0          
O        O      0.881360000000     0.564100000000     0.053176666667     0          
O        O      0.921345000000     0.500000000000     0.044203333333     0          
O        O      0.914790000000     0.574650000000     0.000000000000     0          
O        O      0.931815000000     0.592360000000     0.064103333333     0          
O        O      0.949175000000     0.853300000000     0.104686666667     0          
O        O      0.919820000000     0.910800000000     0.064436666667     0          
O        O      0.912075000000     0.913490000000     0.132383333333     0          
O        O      0.956765000000     0.950840000000     0.106336666667     0          
O        O      0.901600000000     0.921450000000     0.000000000000     0          
O        O      0.908095000000     0.000000000000     0.040450000000     0          
O        O      0.956980000000     0.000000000000     0.166666666667     0          
O        O      0.949280000000     0.664950000000     0.104840000000     0          
O        O      0.924335000000     0.586260000000     0.132263333333     0          
O        O      0.973365000000     0.577750000000     0.106250000000     0          
O        O      0.968345000000     0.687310000000     0.166666666667     0          
O        O      0.959675000000     0.759350000000     0.120876666667     0          
O        O      0.500000000000     0.695920000000     0.111886666667     0          
O        O      0.500000000000     0.822870000000     0.111986666667     0          
O        O      0.968195000000     0.831540000000     0.166666666667     0          
O        O      0.881175000000     0.557720000000     0.166666666667     0          
O        O      0.924275000000     0.500000000000     0.166666666667     0          
O        O      0.911925000000     0.000000000000     0.166666666667     0          
O        O      0.500000000000     0.582190000000     0.166666666667     0          
Si       Si     0.565515000000     0.907120000000     0.231300000000     0          
Si       Si     0.600580000000     0.941800000000     0.293703333333     0          
Si       Si     0.530705000000     0.816640000000     0.207476666667     0          
Si       Si     0.530695000000     0.702070000000     0.207513333333     0          
Si       Si     0.555510000000     0.605300000000     0.231436666667     0          
Si       Si     0.587675000000     0.557800000000     0.292963333333     0          
Si       Si     0.598520000000     0.942730000000     0.166666666667     0          
Si       Si     0.586170000000     0.557270000000     0.166666666667     0          
Si       Si     0.532615000000     0.000000000000     0.206660000000     0          
Si       Si     0.500000000000     0.560210000000     0.205996666667     0          
O        O      0.618640000000     0.564100000000     0.280156666667     0          
O        O      0.578655000000     0.500000000000     0.289130000000     0          
O        O      0.585210000000     0.574650000000     0.000000000000     0          
O        O      0.568185000000     0.592360000000     0.269230000000     0          
O        O      0.550825000000     0.853300000000     0.228646666667     0          
O        O      0.580180000000     0.910800000000     0.268896666667     0          
O        O      0.587925000000     0.913490000000     0.200950000000     0          
O        O      0.543235000000     0.950840000000     0.226996666667     0          
O        O      0.598400000000     0.921450000000     0.000000000000     0          
O        O      0.591905000000     0.000000000000     0.292883333333     0          
O        O      0.500000000000     0.000000000000     0.207126666667     0          
O        O      0.550720000000     0.664950000000     0.228493333333     0          
O        O      0.575665000000     0.586260000000     0.201070000000     0          
O        O      0.526635000000     0.577750000000     0.227083333333     0          
O        O      0.531655000000     0.687310000000     0.166666666667     0          
O        O      0.540325000000     0.759350000000     0.212456666667     0          
O        O      0.500000000000     0.695920000000     0.221446666667     0          
O        O      0.500000000000     0.822870000000     0.221346666667     0          
O        O      0.531805000000     0.831540000000     0.166666666667     0          
O        O      0.618825000000     0.557720000000     0.166666666667     0          
O        O      0.500000000000     0.500000000000     0.203806666667     0          
Si       Si     0.934485000000     0.092880000000     0.231300000000     0          
Si       Si     0.899420000000     0.058200000000     0.293703333333     0          
Si       Si     0.969295000000     0.183360000000     0.207476666667     0          
Si       Si     0.969305000000     0.297930000000     0.207513333333     0          
Si       Si     0.944490000000     0.394700000000     0.231436666667     0          
Si       Si     0.912325000000     0.442200000000     0.292963333333     0          
Si       Si     0.901480000000     0.057270000000     0.166666666667     0          
Si       Si     0.913830000000     0.442730000000     0.166666666667     0          
Si       Si     0.967385000000     0.000000000000     0.206660000000     0          
Si       Si     0.500000000000     0.439790000000     0.205996666667     0          
O        O      0.881360000000     0.435900000000     0.280156666667     0          
O        O      0.921345000000     0.500000000000     0.289130000000     0          
O        O      0.914790000000     0.425350000000     0.000000000000     0          
O        O      0.931815000000     0.407640000000     0.269230000000     0          
O        O      0.949175000000     0.146700000000     0.228646666667     0          
O        O      0.919820000000     0.089200000000     0.268896666667     0          
O        O      0.912075000000     0.086510000000     0.200950000000     0          
O        O      0.956765000000     0.049160000000     0.226996666667     0          
O        O      0.901600000000     0.078550000000     0.000000000000     0          
O        O      0.908095000000     0.000000000000     0.292883333333     0          
O        O      0.949280000000     0.335050000000     0.228493333333     0          
O        O      0.924335000000     0.413740000000     0.201070000000     0          
O        O      0.973365000000     0.422250000000     0.227083333333     0          
O        O      0.968345000000     0.312690000000     0.166666666667     0          
O        O      0.959675000000     0.240650000000     0.212456666667     0          
O        O      0.500000000000     0.304080000000     0.221446666667     0          
O        O      0.500000000000     0.177130000000     0.221346666667     0          
O        O      0.968195000000     0.168460000000     0.166666666667     0          
O        O      0.881175000000     0.442280000000     0.166666666667     0          
Si       Si     0.934485000000     0.907120000000     0.231300000000     0          
Si       Si     0.899420000000     0.941800000000     0.293703333333     0          
Si       Si     0.969295000000     0.816640000000     0.207476666667     0          
Si       Si     0.969305000000     0.702070000000     0.207513333333     0          
Si       Si     0.944490000000     0.605300000000     0.231436666667     0          
Si       Si     0.912325000000     0.557800000000     0.292963333333     0          
O        O      0.881360000000     0.564100000000     0.280156666667     0          
O        O      0.931815000000     0.592360000000     0.269230000000     0          
O        O      0.949175000000     0.853300000000     0.228646666667     0          
O        O      0.919820000000     0.910800000000     0.268896666667     0          
O        O      0.912075000000     0.913490000000     0.200950000000     0          
O        O      0.956765000000     0.950840000000     0.226996666667     0          
O        O      0.949280000000     0.664950000000     0.228493333333     0          
O        O      0.924335000000     0.586260000000     0.201070000000     0          
O        O      0.973365000000     0.577750000000     0.227083333333     0          
O        O      0.959675000000     0.759350000000     0.212456666667     0          
Si       Si     0.565515000000     0.092880000000     0.231300000000     0          
Si       Si     0.600580000000     0.058200000000     0.293703333333     0          
Si       Si     0.530705000000     0.183360000000     0.207476666667     0          
Si       Si     0.530695000000     0.297930000000     0.207513333333     0          
Si       Si     0.555510000000     0.394700000000     0.231436666667     0          
Si       Si     0.587675000000     0.442200000000     0.292963333333     0          
O        O      0.618640000000     0.435900000000     0.280156666667     0          
O        O      0.568185000000     0.407640000000     0.269230000000     0          
O        O      0.550825000000     0.146700000000     0.228646666667     0          
O        O      0.580180000000     0.089200000000     0.268896666667     0          
O        O      0.587925000000     0.086510000000     0.200950000000     0          
O        O      0.543235000000     0.049160000000     0.226996666667     0          
O        O      0.550720000000     0.335050000000     0.228493333333     0          
O        O      0.575665000000     0.413740000000     0.201070000000     0          
O        O      0.526635000000     0.422250000000     0.227083333333     0          
O        O      0.540325000000     0.240650000000     0.212456666667     0          
Si       Si     0.934485000000     0.092880000000     0.102033333333     0          
Si       Si     0.899420000000     0.058200000000     0.039630000000     0          
Si       Si     0.969295000000     0.183360000000     0.125856666667     0          
Si       Si     0.969305000000     0.297930000000     0.125820000000     0          
Si       Si     0.944490000000     0.394700000000     0.101896666667     0          
Si       Si     0.912325000000     0.442200000000     0.040370000000     0          
O        O      0.881360000000     0.435900000000     0.053176666667     0          
O        O      0.931815000000     0.407640000000     0.064103333333     0          
O        O      0.949175000000     0.146700000000     0.104686666667     0          
O        O      0.919820000000     0.089200000000     0.064436666667     0          
O        O      0.912075000000     0.086510000000     0.132383333333     0          
O        O      0.956765000000     0.049160000000     0.106336666667     0          
O        O      0.949280000000     0.335050000000     0.104840000000     0          
O        O      0.924335000000     0.413740000000     0.132263333333     0          
O        O      0.973365000000     0.422250000000     0.106250000000     0          
O        O      0.959675000000     0.240650000000     0.120876666667     0          
Si       Si     0.565515000000     0.907120000000     0.102033333333     0          
Si       Si     0.600580000000     0.941800000000     0.039630000000     0          
Si       Si     0.530705000000     0.816640000000     0.125856666667     0          
Si       Si     0.530695000000     0.702070000000     0.125820000000     0          
Si       Si     0.555510000000     0.605300000000     0.101896666667     0          
Si       Si     0.587675000000     0.557800000000     0.040370000000     0          
O        O      0.618640000000     0.564100000000     0.053176666667     0          
O        O      0.568185000000     0.592360000000     0.064103333333     0          
O        O      0.550825000000     0.853300000000     0.104686666667     0          
O        O      0.580180000000     0.910800000000     0.064436666667     0          
O        O      0.587925000000     0.913490000000     0.132383333333     0          
O        O      0.543235000000     0.950840000000     0.106336666667     0          
O        O      0.550720000000     0.664950000000     0.104840000000     0          
O        O      0.575665000000     0.586260000000     0.132263333333     0          
O        O      0.526635000000     0.577750000000     0.106250000000     0          
O        O      0.540325000000     0.759350000000     0.120876666667     0          
Si       Si     0.815515000000     0.592880000000     0.102033333333     0          
Si       Si     0.850580000000     0.558200000000     0.039630000000     0          
Si       Si     0.780705000000     0.683360000000     0.125856666667     0          
Si       Si     0.780695000000     0.797930000000     0.125820000000     0          
Si       Si     0.805510000000     0.894700000000     0.101896666667     0          
Si       Si     0.837675000000     0.942200000000     0.040370000000     0          
Si       Si     0.848520000000     0.557270000000     0.166666666667     0          
Si       Si     0.836170000000     0.942730000000     0.166666666667     0          
Si       Si     0.782615000000     0.500000000000     0.126673333333     0          
Si       Si     0.750000000000     0.939790000000     0.127336666667     0          
O        O      0.868640000000     0.935900000000     0.053176666667     0          
O        O      0.828655000000     0.000000000000     0.044203333333     0          
O        O      0.835210000000     0.925350000000     0.000000000000     0          
O        O      0.818185000000     0.907640000000     0.064103333333     0          
O        O      0.800825000000     0.646700000000     0.104686666667     0          
O        O      0.830180000000     0.589200000000     0.064436666667     0          
O        O      0.837925000000     0.586510000000     0.132383333333     0          
O        O      0.793235000000     0.549160000000     0.106336666667     0          
O        O      0.848400000000     0.578550000000     0.000000000000     0          
O        O      0.841905000000     0.500000000000     0.040450000000     0          
O        O      0.750000000000     0.500000000000     0.126206666667     0          
O        O      0.793020000000     0.500000000000     0.166666666667     0          
O        O      0.800720000000     0.835050000000     0.104840000000     0          
O        O      0.825665000000     0.913740000000     0.132263333333     0          
O        O      0.776635000000     0.922250000000     0.106250000000     0          
O        O      0.781655000000     0.812690000000     0.166666666667     0          
O        O      0.790325000000     0.740650000000     0.120876666667     0          
O        O      0.750000000000     0.804080000000     0.111886666667     0          
O        O      0.750000000000     0.677130000000     0.111986666667     0          
O        O      0.781805000000     0.668460000000     0.166666666667     0          
O        O      0.868825000000     0.942280000000     0.166666666667     0          
O        O      0.825725000000     0.000000000000     0.166666666667     0          
O        O      0.838075000000     0.500000000000     0.166666666667     0          
O        O      0.750000000000     0.917810000000     0.166666666667     0          
O        O      0.750000000000     0.000000000000     0.129526666667     0          
Si       Si     0.684485000000     0.407120000000     0.102033333333     0          
Si       Si     0.649420000000     0.441800000000     0.039630000000     0          
Si       Si     0.719295000000     0.316640000000     0.125856666667     0          
Si       Si     0.719305000000     0.202070000000     0.125820000000     0          
Si       Si     0.694490000000     0.105300000000     0.101896666667     0          
Si       Si     0.662325000000     0.057800000000     0.040370000000     0          
Si       Si     0.651480000000     0.442730000000     0.166666666667     0          
Si       Si     0.663830000000     0.057270000000     0.166666666667     0          
Si       Si     0.717385000000     0.500000000000     0.126673333333     0          
Si       Si     0.750000000000     0.060210000000     0.127336666667     0          
O        O      0.631360000000     0.064100000000     0.053176666667     0          
O        O      0.671345000000     0.000000000000     0.044203333333     0          
O        O      0.664790000000     0.074650000000     0.000000000000     0          
O        O      0.681815000000     0.092360000000     0.064103333333     0          
O        O      0.699175000000     0.353300000000     0.104686666667     0          
O        O      0.669820000000     0.410800000000     0.064436666667     0          
O        O      0.662075000000     0.413490000000     0.132383333333     0          
O        O      0.706765000000     0.450840000000     0.106336666667     0          
O        O      0.651600000000     0.421450000000     0.000000000000     0          
O        O      0.658095000000     0.500000000000     0.040450000000     0          
O        O      0.706980000000     0.500000000000     0.166666666667     0          
O        O      0.699280000000     0.164950000000     0.104840000000     0          
O        O      0.674335000000     0.086260000000     0.132263333333     0          
O        O      0.723365000000     0.077750000000     0.106250000000     0          
O        O      0.718345000000     0.187310000000     0.166666666667     0          
O        O      0.709675000000     0.259350000000     0.120876666667     0          
O        O      0.750000000000     0.195920000000     0.111886666667     0          
O        O      0.750000000000     0.322870000000     0.111986666667     0          
O        O      0.718195000000     0.331540000000     0.166666666667     0          
O        O      0.631175000000     0.057720000000     0.166666666667     0          
O        O      0.674275000000     0.000000000000     0.166666666667     0          
O        O      0.661925000000     0.500000000000     0.166666666667     0          
O        O      0.750000000000     0.082190000000     0.166666666667     0          
Si       Si     0.815515000000     0.407120000000     0.231300000000     0          
Si       Si     0.850580000000     0.441800000000     0.293703333333     0          
Si       Si     0.780705000000     0.316640000000     0.207476666667     0          
Si       Si     0.780695000000     0.202070000000     0.207513333333     0          
Si       Si     0.805510000000     0.105300000000     0.231436666667     0          
Si       Si     0.837675000000     0.057800000000     0.292963333333     0          
Si       Si     0.848520000000     0.442730000000     0.166666666667     0          
Si       Si     0.836170000000     0.057270000000     0.166666666667     0          
Si       Si     0.782615000000     0.500000000000     0.206660000000     0          
Si       Si     0.750000000000     0.060210000000     0.205996666667     0          
O        O      0.868640000000     0.064100000000     0.280156666667     0          
O        O      0.828655000000     0.000000000000     0.289130000000     0          
O        O      0.835210000000     0.074650000000     0.000000000000     0          
O        O      0.818185000000     0.092360000000     0.269230000000     0          
O        O      0.800825000000     0.353300000000     0.228646666667     0          
O        O      0.830180000000     0.410800000000     0.268896666667     0          
O        O      0.837925000000     0.413490000000     0.200950000000     0          
O        O      0.793235000000     0.450840000000     0.226996666667     0          
O        O      0.848400000000     0.421450000000     0.000000000000     0          
O        O      0.841905000000     0.500000000000     0.292883333333     0          
O        O      0.750000000000     0.500000000000     0.207126666667     0          
O        O      0.800720000000     0.164950000000     0.228493333333     0          
O        O      0.825665000000     0.086260000000     0.201070000000     0          
O        O      0.776635000000     0.077750000000     0.227083333333     0          
O        O      0.781655000000     0.187310000000     0.166666666667     0          
O        O      0.790325000000     0.259350000000     0.212456666667     0          
O        O      0.750000000000     0.195920000000     0.221446666667     0          
O        O      0.750000000000     0.322870000000     0.221346666667     0          
O        O      0.781805000000     0.331540000000     0.166666666667     0          
O        O      0.868825000000     0.057720000000     0.166666666667     0          
O        O      0.750000000000     0.000000000000     0.203806666667     0          
Si       Si     0.684485000000     0.592880000000     0.231300000000     0          
Si       Si     0.649420000000     0.558200000000     0.293703333333     0          
Si       Si     0.719295000000     0.683360000000     0.207476666667     0          
Si       Si     0.719305000000     0.797930000000     0.207513333333     0          
Si       Si     0.694490000000     0.894700000000     0.231436666667     0          
Si       Si     0.662325000000     0.942200000000     0.292963333333     0          
Si       Si     0.651480000000     0.557270000000     0.166666666667     0          
Si       Si     0.663830000000     0.942730000000     0.166666666667     0          
Si       Si     0.717385000000     0.500000000000     0.206660000000     0          
Si       Si     0.750000000000     0.939790000000     0.205996666667     0          
O        O      0.631360000000     0.935900000000     0.280156666667     0          
O        O      0.671345000000     0.000000000000     0.289130000000     0          
O        O      0.664790000000     0.925350000000     0.000000000000     0          
O        O      0.681815000000     0.907640000000     0.269230000000     0          
O        O      0.699175000000     0.646700000000     0.228646666667     0          
O        O      0.669820000000     0.589200000000     0.268896666667     0          
O        O      0.662075000000     0.586510000000     0.200950000000     0          
O        O      0.706765000000     0.549160000000     0.226996666667     0          
O        O      0.651600000000     0.578550000000     0.000000000000     0          
O        O      0.658095000000     0.500000000000     0.292883333333     0          
O        O      0.699280000000     0.835050000000     0.228493333333     0          
O        O      0.674335000000     0.913740000000     0.201070000000     0          
O        O      0.723365000000     0.922250000000     0.227083333333     0          
O        O      0.718345000000     0.812690000000     0.166666666667     0          
O        O      0.709675000000     0.740650000000     0.212456666667     0          
O        O      0.750000000000     0.804080000000     0.221446666667     0          
O        O      0.750000000000     0.677130000000     0.221346666667     0          
O        O      0.718195000000     0.668460000000     0.166666666667     0          
O        O      0.631175000000     0.942280000000     0.166666666667     0          
Si       Si     0.684485000000     0.407120000000     0.231300000000     0          
Si       Si     0.649420000000     0.441800000000     0.293703333333     0          
Si       Si     0.719295000000     0.316640000000     0.207476666667     0          
Si       Si     0.719305000000     0.202070000000     0.207513333333     0          
Si       Si     0.694490000000     0.105300000000     0.231436666667     0          
Si       Si     0.662325000000     0.057800000000     0.292963333333     0          
O        O      0.631360000000     0.064100000000     0.280156666667     0          
O        O      0.681815000000     0.092360000000     0.269230000000     0          
O        O      0.699175000000     0.353300000000     0.228646666667     0          
O        O      0.669820000000     0.410800000000     0.268896666667     0          
O        O      0.662075000000     0.413490000000     0.200950000000     0          
O        O      0.706765000000     0.450840000000     0.226996666667     0          
O        O      0.699280000000     0.164950000000     0.228493333333     0          
O        O      0.674335000000     0.086260000000     0.201070000000     0          
O        O      0.723365000000     0.077750000000     0.227083333333     0          
O        O      0.709675000000     0.259350000000     0.212456666667     0          
Si       Si     0.815515000000     0.592880000000     0.231300000000     0          
Si       Si     0.850580000000     0.558200000000     0.293703333333     0          
Si       Si     0.780705000000     0.683360000000     0.207476666667     0          
Si       Si     0.780695000000     0.797930000000     0.207513333333     0          
Si       Si     0.805510000000     0.894700000000     0.231436666667     0          
Si       Si     0.837675000000     0.942200000000     0.292963333333     0          
O        O      0.868640000000     0.935900000000     0.280156666667     0          
O        O      0.818185000000     0.907640000000     0.269230000000     0          
O        O      0.800825000000     0.646700000000     0.228646666667     0          
O        O      0.830180000000     0.589200000000     0.268896666667     0          
O        O      0.837925000000     0.586510000000     0.200950000000     0          
O        O      0.793235000000     0.549160000000     0.226996666667     0          
O        O      0.800720000000     0.835050000000     0.228493333333     0          
O        O      0.825665000000     0.913740000000     0.201070000000     0          
O        O      0.776635000000     0.922250000000     0.227083333333     0          
O        O      0.790325000000     0.740650000000     0.212456666667     0          
Si       Si     0.684485000000     0.592880000000     0.102033333333     0          
Si       Si     0.649420000000     0.558200000000     0.039630000000     0          
Si       Si     0.719295000000     0.683360000000     0.125856666667     0          
Si       Si     0.719305000000     0.797930000000     0.125820000000     0          
Si       Si     0.694490000000     0.894700000000     0.101896666667     0          
Si       Si     0.662325000000     0.942200000000     0.040370000000     0          
O        O      0.631360000000     0.935900000000     0.053176666667     0          
O        O      0.681815000000     0.907640000000     0.064103333333     0          
O        O      0.699175000000     0.646700000000     0.104686666667     0          
O        O      0.669820000000     0.589200000000     0.064436666667     0          
O        O      0.662075000000     0.586510000000     0.132383333333     0          
O        O      0.706765000000     0.549160000000     0.106336666667     0          
O        O      0.699280000000     0.835050000000     0.104840000000     0          
O        O      0.674335000000     0.913740000000     0.132263333333     0          
O        O      0.723365000000     0.922250000000     0.106250000000     0          
O        O      0.709675000000     0.740650000000     0.120876666667     0          
Si       Si     0.815515000000     0.407120000000     0.102033333333     0          
Si       Si     0.850580000000     0.441800000000     0.039630000000     0          
Si       Si     0.780705000000     0.316640000000     0.125856666667     0          
Si       Si     0.780695000000     0.202070000000     0.125820000000     0          
Si       Si     0.805510000000     0.105300000000     0.101896666667     0          
Si       Si     0.837675000000     0.057800000000     0.040370000000     0          
O        O      0.868640000000     0.064100000000     0.053176666667     0          
O        O      0.818185000000     0.092360000000     0.064103333333     0          
O        O      0.800825000000     0.353300000000     0.104686666667     0          
O        O      0.830180000000     0.410800000000     0.064436666667     0          
O        O      0.837925000000     0.413490000000     0.132383333333     0          
O        O      0.793235000000     0.450840000000     0.106336666667     0          
O        O      0.800720000000     0.164950000000     0.104840000000     0          
O        O      0.825665000000     0.086260000000     0.132263333333     0          
O        O      0.776635000000     0.077750000000     0.106250000000     0          
O        O      0.790325000000     0.259350000000     0.120876666667     0          
Si       Si     0.565515000000     0.092880000000     0.435366666667     0          
Si       Si     0.600580000000     0.058200000000     0.372963333333     0          
Si       Si     0.530705000000     0.183360000000     0.459190000000     0          
Si       Si     0.530695000000     0.297930000000     0.459153333333     0          
Si       Si     0.555510000000     0.394700000000     0.435230000000     0          
Si       Si     0.587675000000     0.442200000000     0.373703333333     0          
Si       Si     0.598520000000     0.057270000000     0.500000000000     0          
Si       Si     0.586170000000     0.442730000000     0.500000000000     0          
Si       Si     0.532615000000     0.000000000000     0.460006666667     0          
Si       Si     0.500000000000     0.439790000000     0.460670000000     0          
O        O      0.618640000000     0.435900000000     0.386510000000     0          
O        O      0.578655000000     0.500000000000     0.377536666667     0          
O        O      0.585210000000     0.425350000000     0.333333333333     0          
O        O      0.568185000000     0.407640000000     0.397436666667     0          
O        O      0.550825000000     0.146700000000     0.438020000000     0          
O        O      0.580180000000     0.089200000000     0.397770000000     0          
O        O      0.587925000000     0.086510000000     0.465716666667     0          
O        O      0.543235000000     0.049160000000     0.439670000000     0          
O        O      0.598400000000     0.078550000000     0.333333333333     0          
O        O      0.591905000000     0.000000000000     0.373783333333     0          
O        O      0.500000000000     0.000000000000     0.459540000000     0          
O        O      0.543020000000     0.000000000000     0.500000000000     0          
O        O      0.550720000000     0.335050000000     0.438173333333     0          
O        O      0.575665000000     0.413740000000     0.465596666667     0          
O        O      0.526635000000     0.422250000000     0.439583333333     0          
O        O      0.531655000000     0.312690000000     0.500000000000     0          
O        O      0.540325000000     0.240650000000     0.454210000000     0          
O        O      0.500000000000     0.304080000000     0.445220000000     0          
O        O      0.500000000000     0.177130000000     0.445320000000     0          
O        O      0.531805000000     0.168460000000     0.500000000000     0          
O        O      0.618825000000     0.442280000000     0.500000000000     0          
O        O      0.575725000000     0.500000000000     0.500000000000     0          
O        O      0.588075000000     0.000000000000     0.500000000000     0          
O        O      0.500000000000     0.417810000000     0.500000000000     0          
O        O      0.500000000000     0.500000000000     0.462860000000     0          
Si       Si     0.934485000000     0.907120000000     0.435366666667     0          
Si       Si     0.899420000000     0.941800000000     0.372963333333     0          
Si       Si     0.969295000000     0.816640000000     0.459190000000     0          
Si       Si     0.969305000000     0.702070000000     0.459153333333     0          
Si       Si     0.944490000000     0.605300000000     0.435230000000     0          
Si       Si     0.912325000000     0.557800000000     0.373703333333     0          
Si       Si     0.901480000000     0.942730000000     0.500000000000     0          
Si       Si     0.913830000000     0.557270000000     0.500000000000     0          
Si       Si     0.967385000000     0.000000000000     0.460006666667     0          
Si       Si     0.500000000000     0.560210000000     0.460670000000     0          
O        O      0.881360000000     0.564100000000     0.386510000000     0          
O        O      0.921345000000     0.500000000000     0.377536666667     0          
O        O      0.914790000000     0.574650000000     0.333333333333     0          
O        O      0.931815000000     0.592360000000     0.397436666667     0          
O        O      0.949175000000     0.853300000000     0.438020000000     0          
O        O      0.919820000000     0.910800000000     0.397770000000     0          
O        O      0.912075000000     0.913490000000     0.465716666667     0          
O        O      0.956765000000     0.950840000000     0.439670000000     0          
O        O      0.901600000000     0.921450000000     0.333333333333     0          
O        O      0.908095000000     0.000000000000     0.373783333333     0          
O        O      0.956980000000     0.000000000000     0.500000000000     0          
O        O      0.949280000000     0.664950000000     0.438173333333     0          
O        O      0.924335000000     0.586260000000     0.465596666667     0          
O        O      0.973365000000     0.577750000000     0.439583333333     0          
O        O      0.968345000000     0.687310000000     0.500000000000     0          
O        O      0.959675000000     0.759350000000     0.454210000000     0          
O        O      0.500000000000     0.695920000000     0.445220000000     0          
O        O      0.500000000000     0.822870000000     0.445320000000     0          
O        O      0.968195000000     0.831540000000     0.500000000000     0          
O        O      0.881175000000     0.557720000000     0.500000000000     0          
O        O      0.924275000000     0.500000000000     0.500000000000     0          
O        O      0.911925000000     0.000000000000     0.500000000000     0          
O        O      0.500000000000     0.582190000000     0.500000000000     0          
Si       Si     0.565515000000     0.907120000000     0.564633333333     0          
Si       Si     0.600580000000     0.941800000000     0.627036666667     0          
Si       Si     0.530705000000     0.816640000000     0.540810000000     0          
Si       Si     0.530695000000     0.702070000000     0.540846666667     0          
Si       Si     0.555510000000     0.605300000000     0.564770000000     0          
Si       Si     0.587675000000     0.557800000000     0.626296666667     0          
Si       Si     0.598520000000     0.942730000000     0.500000000000     0          
Si       Si     0.586170000000     0.557270000000     0.500000000000     0          
Si       Si     0.532615000000     0.000000000000     0.539993333333     0          
Si       Si     0.500000000000     0.560210000000     0.539330000000     0          
O        O      0.618640000000     0.564100000000     0.613490000000     0          
O        O      0.578655000000     0.500000000000     0.622463333333     0          
O        O      0.585210000000     0.574650000000     0.333333333333     0          
O        O      0.568185000000     0.592360000000     0.602563333333     0          
O        O      0.550825000000     0.853300000000     0.561980000000     0          
O        O      0.580180000000     0.910800000000     0.602230000000     0          
O        O      0.587925000000     0.913490000000     0.534283333333     0          
O        O      0.543235000000     0.950840000000     0.560330000000     0          
O        O      0.598400000000     0.921450000000     0.333333333333     0          
O        O      0.591905000000     0.000000000000     0.626216666667     0          
O        O      0.500000000000     0.000000000000     0.540460000000     0          
O        O      0.550720000000     0.664950000000     0.561826666667     0          
O        O      0.575665000000     0.586260000000     0.534403333333     0          
O        O      0.526635000000     0.577750000000     0.560416666667     0          
O        O      0.531655000000     0.687310000000     0.500000000000     0          
O        O      0.540325000000     0.759350000000     0.545790000000     0          
O        O      0.500000000000     0.695920000000     0.554780000000     0          
O        O      0.500000000000     0.822870000000     0.554680000000     0          
O        O      0.531805000000     0.831540000000     0.500000000000     0          
O        O      0.618825000000     0.557720000000     0.500000000000     0          
O        O      0.500000000000     0.500000000000     0.537140000000     0          
Si       Si     0.934485000000     0.092880000000     0.564633333333     0          
Si       Si     0.899420000000     0.058200000000     0.627036666667     0          
Si       Si     0.969295000000     0.183360000000     0.540810000000     0          
Si       Si     0.969305000000     0.297930000000     0.540846666667     0          
Si       Si     0.944490000000     0.394700000000     0.564770000000     0          
Si       Si     0.912325000000     0.442200000000     0.626296666667     0          
Si       Si     0.901480000000     0.057270000000     0.500000000000     0          
Si       Si     0.913830000000     0.442730000000     0.500000000000     0          
Si       Si     0.967385000000     0.000000000000     0.539993333333     0          
Si       Si     0.500000000000     0.439790000000     0.539330000000     0          
O        O      0.881360000000     0.435900000000     0.613490000000     0          
O        O      0.921345000000     0.500000000000     0.622463333333     0          
O        O      0.914790000000     0.425350000000     0.333333333333     0          
O        O      0.931815000000     0.407640000000     0.602563333333     0          
O        O      0.949175000000     0.146700000000     0.561980000000     0          
O        O      0.919820000000     0.089200000000     0.602230000000     0          
O        O      0.912075000000     0.086510000000     0.534283333333     0          
O        O      0.956765000000     0.049160000000     0.560330000000     0          
O        O      0.901600000000     0.078550000000     0.333333333333     0          
O        O      0.908095000000     0.000000000000     0.626216666667     0          
O        O      0.949280000000     0.335050000000     0.561826666667     0          
O        O      0.924335000000     0.413740000000     0.534403333333     0          
O        O      0.973365000000     0.422250000000     0.560416666667     0          
O        O      0.968345000000     0.312690000000     0.500000000000     0          
O        O      0.959675000000     0.240650000000     0.545790000000     0          
O        O      0.500000000000     0.304080000000     0.554780000000     0          
O        O      0.500000000000     0.177130000000     0.554680000000     0          
O        O      0.968195000000     0.168460000000     0.500000000000     0          
O        O      0.881175000000     0.442280000000     0.500000000000     0          
Si       Si     0.934485000000     0.907120000000     0.564633333333     0          
Si       Si     0.899420000000     0.941800000000     0.627036666667     0          
Si       Si     0.969295000000     0.816640000000     0.540810000000     0          
Si       Si     0.969305000000     0.702070000000     0.540846666667     0          
Si       Si     0.944490000000     0.605300000000     0.564770000000     0          
Si       Si     0.912325000000     0.557800000000     0.626296666667     0          
O        O      0.881360000000     0.564100000000     0.613490000000     0          
O        O      0.931815000000     0.592360000000     0.602563333333     0          
O        O      0.949175000000     0.853300000000     0.561980000000     0          
O        O      0.919820000000     0.910800000000     0.602230000000     0          
O        O      0.912075000000     0.913490000000     0.534283333333     0          
O        O      0.956765000000     0.950840000000     0.560330000000     0          
O        O      0.949280000000     0.664950000000     0.561826666667     0          
O        O      0.924335000000     0.586260000000     0.534403333333     0          
O        O      0.973365000000     0.577750000000     0.560416666667     0          
O        O      0.959675000000     0.759350000000     0.545790000000     0          
Si       Si     0.565515000000     0.092880000000     0.564633333333     0          
Si       Si     0.600580000000     0.058200000000     0.627036666667     0          
Si       Si     0.530705000000     0.183360000000     0.540810000000     0          
Si       Si     0.530695000000     0.297930000000     0.540846666667     0          
Si       Si     0.555510000000     0.394700000000     0.564770000000     0          
Si       Si     0.587675000000     0.442200000000     0.626296666667     0          
O        O      0.618640000000     0.435900000000     0.613490000000     0          
O        O      0.568185000000     0.407640000000     0.602563333333     0          
O        O      0.550825000000     0.146700000000     0.561980000000     0          
O        O      0.580180000000     0.089200000000     0.602230000000     0          
O        O      0.587925000000     0.086510000000     0.534283333333     0          
O        O      0.543235000000     0.049160000000     0.560330000000     0          
O        O      0.550720000000     0.335050000000     0.561826666667     0          
O        O      0.575665000000     0.413740000000     0.534403333333     0          
O        O      0.526635000000     0.422250000000     0.560416666667     0          
O        O      0.540325000000     0.240650000000     0.545790000000     0          
Si       Si     0.934485000000     0.092880000000     0.435366666667     0          
Si       Si     0.899420000000     0.058200000000     0.372963333333     0          
Si       Si     0.969295000000     0.183360000000     0.459190000000     0          
Si       Si     0.969305000000     0.297930000000     0.459153333333     0          
Si       Si     0.944490000000     0.394700000000     0.435230000000     0          
Si       Si     0.912325000000     0.442200000000     0.373703333333     0          
O        O      0.881360000000     0.435900000000     0.386510000000     0          
O        O      0.931815000000     0.407640000000     0.397436666667     0          
O        O      0.949175000000     0.146700000000     0.438020000000     0          
O        O      0.919820000000     0.089200000000     0.397770000000     0          
O        O      0.912075000000     0.086510000000     0.465716666667     0          
O        O      0.956765000000     0.049160000000     0.439670000000     0          
O        O      0.949280000000     0.335050000000     0.438173333333     0          
O        O      0.924335000000     0.413740000000     0.465596666667     0          
O        O      0.973365000000     0.422250000000     0.439583333333     0          
O        O      0.959675000000     0.240650000000     0.454210000000     0          
Si       Si     0.565515000000     0.907120000000     0.435366666667     0          
Si       Si     0.600580000000     0.941800000000     0.372963333333     0          
Si       Si     0.530705000000     0.816640000000     0.459190000000     0          
Si       Si     0.530695000000     0.702070000000     0.459153333333     0          
Si       Si     0.555510000000     0.605300000000     0.435230000000     0          
Si       Si     0.587675000000     0.557800000000     0.373703333333     0          
O        O      0.618640000000     0.564100000000     0.386510000000     0          
O        O      0.568185000000     0.592360000000     0.397436666667     0          
O        O      0.550825000000     0.853300000000     0.438020000000     0          
O        O      0.580180000000     0.910800000000     0.397770000000     0          
O        O      0.587925000000     0.913490000000     0.465716666667     0          
O        O      0.543235000000     0.950840000000     0.439670000000     0          
O        O      0.550720000000     0.664950000000     0.438173333333     0          
O        O      0.575665000000     0.586260000000     0.465596666667     0          
O        O      0.526635000000     0.577750000000     0.439583333333     0          
O        O      0.540325000000     0.759350000000     0.454210000000     0          
Si       Si     0.815515000000     0.592880000000     0.435366666667     0          
Si       Si     0.850580000000     0.558200000000     0.372963333333     0          
Si       Si     0.780705000000     0.683360000000     0.459190000000     0          
Si       Si     0.780695000000     0.797930000000     0.459153333333     0          
Si       Si     0.805510000000     0.894700000000     0.435230000000     0          
Si       Si     0.837675000000     0.942200000000     0.373703333333     0          
Si       Si     0.848520000000     0.557270000000     0.500000000000     0          
Si       Si     0.836170000000     0.942730000000     0.500000000000     0          
Si       Si     0.782615000000     0.500000000000     0.460006666667     0          
Si       Si     0.750000000000     0.939790000000     0.460670000000     0          
O        O      0.868640000000     0.935900000000     0.386510000000     0          
O        O      0.828655000000     0.000000000000     0.377536666667     0          
O        O      0.835210000000     0.925350000000     0.333333333333     0          
O        O      0.818185000000     0.907640000000     0.397436666667     0          
O        O      0.800825000000     0.646700000000     0.438020000000     0          
O        O      0.830180000000     0.589200000000     0.397770000000     0          
O        O      0.837925000000     0.586510000000     0.465716666667     0          
O        O      0.793235000000     0.549160000000     0.439670000000     0          
O        O      0.848400000000     0.578550000000     0.333333333333     0          
O        O      0.841905000000     0.500000000000     0.373783333333     0          
O        O      0.750000000000     0.500000000000     0.459540000000     0          
O        O      0.793020000000     0.500000000000     0.500000000000     0          
O        O      0.800720000000     0.835050000000     0.438173333333     0          
O        O      0.825665000000     0.913740000000     0.465596666667     0          
O        O      0.776635000000     0.922250000000     0.439583333333     0          
O        O      0.781655000000     0.812690000000     0.500000000000     0          
O        O      0.790325000000     0.740650000000     0.454210000000     0          
O        O      0.750000000000     0.804080000000     0.445220000000     0          
O        O      0.750000000000     0.677130000000     0.445320000000     0          
O        O      0.781805000000     0.668460000000     0.500000000000     0          
O        O      0.868825000000     0.942280000000     0.500000000000     0          
O        O      0.825725000000     0.000000000000     0.500000000000     0          
O        O      0.838075000000     0.500000000000     0.500000000000     0          
O        O      0.750000000000     0.917810000000     0.500000000000     0          
O        O      0.750000000000     0.000000000000     0.462860000000     0          
Si       Si     0.684485000000     0.407120000000     0.435366666667     0          
Si       Si     0.649420000000     0.441800000000     0.372963333333     0          
Si       Si     0.719295000000     0.316640000000     0.459190000000     0          
Si       Si     0.719305000000     0.202070000000     0.459153333333     0          
Si       Si     0.694490000000     0.105300000000     0.435230000000     0          
Si       Si     0.662325000000     0.057800000000     0.373703333333     0          
Si       Si     0.651480000000     0.442730000000     0.500000000000     0          
Si       Si     0.663830000000     0.057270000000     0.500000000000     0          
Si       Si     0.717385000000     0.500000000000     0.460006666667     0          
Si       Si     0.750000000000     0.060210000000     0.460670000000     0          
O        O      0.631360000000     0.064100000000     0.386510000000     0          
O        O      0.671345000000     0.000000000000     0.377536666667     0          
O        O      0.664790000000     0.074650000000     0.333333333333     0          
O        O      0.681815000000     0.092360000000     0.397436666667     0          
O        O      0.699175000000     0.353300000000     0.438020000000     0          
O        O      0.669820000000     0.410800000000     0.397770000000     0          
O        O      0.662075000000     0.413490000000     0.465716666667     0          
O        O      0.706765000000     0.450840000000     0.439670000000     0          
O        O      0.651600000000     0.421450000000     0.333333333333     0          
O        O      0.658095000000     0.500000000000     0.373783333333     0          
O        O      0.706980000000     0.500000000000     0.500000000000     0          
O        O      0.699280000000     0.164950000000     0.438173333333     0          
O        O      0.674335000000     0.086260000000     0.465596666667     0          
O        O      0.723365000000     0.077750000000     0.439583333333     0          
O        O      0.718345000000     0.187310000000     0.500000000000     0          
O        O      0.709675000000     0.259350000000     0.454210000000     0          
O        O      0.750000000000     0.195920000000     0.445220000000     0          
O        O      0.750000000000     0.322870000000     0.445320000000     0          
O        O      0.718195000000     0.331540000000     0.500000000000     0          
O        O      0.631175000000     0.057720000000     0.500000000000     0          
O        O      0.674275000000     0.000000000000     0.500000000000     0          
O        O      0.661925000000     0.500000000000     0.500000000000     0          
O        O      0.750000000000     0.082190000000     0.500000000000     0          
Si       Si     0.815515000000     0.407120000000     0.564633333333     0          
Si       Si     0.850580000000     0.441800000000     0.627036666667     0          
Si       Si     0.780705000000     0.316640000000     0.540810000000     0          
Si       Si     0.780695000000     0.202070000000     0.540846666667     0          
Si       Si     0.805510000000     0.105300000000     0.564770000000     0          
Si       Si     0.837675000000     0.057800000000     0.626296666667     0          
Si       Si     0.848520000000     0.442730000000     0.500000000000     0          
Si       Si     0.836170000000     0.057270000000     0.500000000000     0          
Si       Si     0.782615000000     0.500000000000     0.539993333333     0          
Si       Si     0.750000000000     0.060210000000     0.539330000000     0          
O        O      0.868640000000     0.064100000000     0.613490000000     0          
O        O      0.828655000000     0.000000000000     0.622463333333     0          
O        O      0.835210000000     0.074650000000     0.333333333333     0          
O        O      0.818185000000     0.092360000000     0.602563333333     0          
O        O      0.800825000000     0.353300000000     0.561980000000     0          
O        O      0.830180000000     0.410800000000     0.602230000000     0          
O        O      0.837925000000     0.413490000000     0.534283333333     0          
O        O      0.793235000000     0.450840000000     0.560330000000     0          
O        O      0.848400000000     0.421450000000     0.333333333333     0          
O        O      0.841905000000     0.500000000000     0.626216666667     0          
O        O      0.750000000000     0.500000000000     0.540460000000     0          
O        O      0.800720000000     0.164950000000     0.561826666667     0          
O        O      0.825665000000     0.086260000000     0.534403333333     0          
O        O      0.776635000000     0.077750000000     0.560416666667     0          
O        O      0.781655000000     0.187310000000     0.500000000000     0          
O        O      0.790325000000     0.259350000000     0.545790000000     0          
O        O      0.750000000000     0.195920000000     0.554780000000     0          
O        O      0.750000000000     0.322870000000     0.554680000000     0          
O        O      0.781805000000     0.331540000000     0.500000000000     0          
O        O      0.868825000000     0.057720000000     0.500000000000     0          
O        O      0.750000000000     0.000000000000     0.537140000000     0          
Si       Si     0.684485000000     0.592880000000     0.564633333333     0          
Si       Si     0.649420000000     0.558200000000     0.627036666667     0          
Si       Si     0.719295000000     0.683360000000     0.540810000000     0          
Si       Si     0.719305000000     0.797930000000     0.540846666667     0          
Si       Si     0.694490000000     0.894700000000     0.564770000000     0          
Si       Si     0.662325000000     0.942200000000     0.626296666667     0          
Si       Si     0.651480000000     0.557270000000     0.500000000000     0          
Si       Si     0.663830000000     0.942730000000     0.500000000000     0          
Si       Si     0.717385000000     0.500000000000     0.539993333333     0          
Si       Si     0.750000000000     0.939790000000     0.539330000000     0          
O        O      0.631360000000     0.935900000000     0.613490000000     0          
O        O      0.671345000000     0.000000000000     0.622463333333     0          
O        O      0.664790000000     0.925350000000     0.333333333333     0          
O        O      0.681815000000     0.907640000000     0.602563333333     0          
O        O      0.699175000000     0.646700000000     0.561980000000     0          
O        O      0.669820000000     0.589200000000     0.602230000000     0          
O        O      0.662075000000     0.586510000000     0.534283333333     0          
O        O      0.706765000000     0.549160000000     0.560330000000     0          
O        O      0.651600000000     0.578550000000     0.333333333333     0          
O        O      0.658095000000     0.500000000000     0.626216666667     0          
O        O      0.699280000000     0.835050000000     0.561826666667     0          
O        O      0.674335000000     0.913740000000     0.534403333333     0          
O        O      0.723365000000     0.922250000000     0.560416666667     0          
O        O      0.718345000000     0.812690000000     0.500000000000     0          
O        O      0.709675000000     0.740650000000     0.545790000000     0          
O        O      0.750000000000     0.804080000000     0.554780000000     0          
O        O      0.750000000000     0.677130000000     0.554680000000     0          
O        O      0.718195000000     0.668460000000     0.500000000000     0          
O        O      0.631175000000     0.942280000000     0.500000000000     0          
Si       Si     0.684485000000     0.407120000000     0.564633333333     0          
Si       Si     0.649420000000     0.441800000000     0.627036666667     0          
Si       Si     0.719295000000     0.316640000000     0.540810000000     0          
Si       Si     0.719305000000     0.202070000000     0.540846666667     0          
Si       Si     0.694490000000     0.105300000000     0.564770000000     0          
Si       Si     0.662325000000     0.057800000000     0.626296666667     0          
O        O      0.631360000000     0.064100000000     0.613490000000     0          
O        O      0.681815000000     0.092360000000     0.602563333333     0          
O        O      0.699175000000     0.353300000000     0.561980000000     0          
O        O      0.669820000000     0.410800000000     0.602230000000     0          
O        O      0.662075000000     0.413490000000     0.534283333333     0          
O        O      0.706765000000     0.450840000000     0.560330000000     0          
O        O      0.699280000000     0.164950000000     0.561826666667     0          
O        O      0.674335000000     0.086260000000     0.534403333333     0          
O        O      0.723365000000     0.077750000000     0.560416666667     0          
O        O      0.709675000000     0.259350000000     0.545790000000     0          
Si       Si     0.815515000000     0.592880000000     0.564633333333     0          
Si       Si     0.850580000000     0.558200000000     0.627036666667     0          
Si       Si     0.780705000000     0.683360000000     0.540810000000     0          
Si       Si     0.780695000000     0.797930000000     0.540846666667     0          
Si       Si     0.805510000000     0.894700000000     0.564770000000     0          
Si       Si     0.837675000000     0.942200000000     0.626296666667     0          
O        O      0.868640000000     0.935900000000     0.613490000000     0          
O        O      0.818185000000     0.907640000000     0.602563333333     0          
O        O      0.800825000000     0.646700000000     0.561980000000     0          
O        O      0.830180000000     0.589200000000     0.602230000000     0          
O        O      0.837925000000     0.586510000000     0.534283333333     0          
O        O      0.793235000000     0.549160000000     0.560330000000     0          
O        O      0.800720000000     0.835050000000     0.561826666667     0          
O        O      0.825665000000     0.913740000000     0.534403333333     0          
O        O      0.776635000000     0.922250000000     0.560416666667     0          
O        O      0.790325000000     0.740650000000     0.545790000000     0          
Si       Si     0.684485000000     0.592880000000     0.435366666667     0          
Si       Si     0.649420000000     0.558200000000     0.372963333333     0          
Si       Si     0.719295000000     0.683360000000     0.459190000000     0          
Si       Si     0.719305000000     0.797930000000     0.459153333333     0          
Si       Si     0.694490000000     0.894700000000     0.435230000000     0          
Si       Si     0.662325000000     0.942200000000     0.373703333333     0          
O        O      0.631360000000     0.935900000000     0.386510000000     0          
O        O      0.681815000000     0.907640000000     0.397436666667     0          
O        O      0.699175000000     0.646700000000     0.438020000000     0          
O        O      0.669820000000     0.589200000000     0.397770000000     0          
O        O      0.662075000000     0.586510000000     0.465716666667     0          
O        O      0.706765000000     0.549160000000     0.439670000000     0          
O        O      0.699280000000     0.835050000000     0.438173333333     0          
O        O      0.674335000000     0.913740000000     0.465596666667     0          
O        O      0.723365000000     0.922250000000     0.439583333333     0          
O        O      0.709675000000     0.740650000000     0.454210000000     0          
Si       Si     0.815515000000     0.407120000000     0.435366666667     0          
Si       Si     0.850580000000     0.441800000000     0.372963333333     0          
Si       Si     0.780705000000     0.316640000000     0.459190000000     0          
Si       Si     0.780695000000     0.202070000000     0.459153333333     0          
Si       Si     0.805510000000     0.105300000000     0.435230000000     0          
Si       Si     0.837675000000     0.057800000000     0.373703333333     0          
O        O      0.868640000000     0.064100000000     0.386510000000     0          
O        O      0.818185000000     0.092360000000     0.397436666667     0          
O        O      0.800825000000     0.353300000000     0.438020000000     0          
O        O      0.830180000000     0.410800000000     0.397770000000     0          
O        O      0.837925000000     0.413490000000     0.465716666667     0          
O        O      0.793235000000     0.450840000000     0.439670000000     0          
O        O      0.800720000000     0.164950000000     0.438173333333     0          
O        O      0.825665000000     0.086260000000     0.465596666667     0          
O        O      0.776635000000     0.077750000000     0.439583333333     0          
O        O      0.790325000000     0.259350000000     0.454210000000     0          
Si       Si     0.565515000000     0.092880000000     0.768700000000     0          
Si       Si     0.600580000000     0.058200000000     0.706296666667     0          
Si       Si     0.530705000000     0.183360000000     0.792523333333     0          
Si       Si     0.530695000000     0.297930000000     0.792486666667     0          
Si       Si     0.555510000000     0.394700000000     0.768563333333     0          
Si       Si     0.587675000000     0.442200000000     0.707036666667     0          
Si       Si     0.598520000000     0.057270000000     0.833333333333     0          
Si       Si     0.586170000000     0.442730000000     0.833333333333     0          
Si       Si     0.532615000000     0.000000000000     0.793340000000     0          
Si       Si     0.500000000000     0.439790000000     0.794003333333     0          
O        O      0.618640000000     0.435900000000     0.719843333333     0          
O        O      0.578655000000     0.500000000000     0.710870000000     0          
O        O      0.585210000000     0.425350000000     0.666666666667     0          
O        O      0.568185000000     0.407640000000     0.730770000000     0          
O        O      0.550825000000     0.146700000000     0.771353333333     0          
O        O      0.580180000000     0.089200000000     0.731103333333     0          
O        O      0.587925000000     0.086510000000     0.799050000000     0          
O        O      0.543235000000     0.049160000000     0.773003333333     0          
O        O      0.598400000000     0.078550000000     0.666666666667     0          
O        O      0.591905000000     0.000000000000     0.707116666667     0          
O        O      0.500000000000     0.000000000000     0.792873333333     0          
O        O      0.543020000000     0.000000000000     0.833333333333     0          
O        O      0.550720000000     0.335050000000     0.771506666667     0          
O        O      0.575665000000     0.413740000000     0.798930000000     0          
O        O      0.526635000000     0.422250000000     0.772916666667     0          
O        O      0.531655000000     0.312690000000     0.833333333333     0          
O        O      0.540325000000     0.240650000000     0.787543333333     0          
O        O      0.500000000000     0.304080000000     0.778553333333     0          
O        O      0.500000000000     0.177130000000     0.778653333333     0          
O        O      0.531805000000     0.168460000000     0.833333333333     0          
O        O      0.618825000000     0.442280000000     0.833333333333     0          
O        O      0.575725000000     0.500000000000     0.833333333333     0          
O        O      0.588075000000     0.000000000000     0.833333333333     0          
O        O      0.500000000000     0.417810000000     0.833333333333     0          
O        O      0.500000000000     0.500000000000     0.796193333333     0          
Si       Si     0.934485000000     0.907120000000     0.768700000000     0          
Si       Si     0.899420000000     0.941800000000     0.706296666667     0          
Si       Si     0.969295000000     0.816640000000     0.792523333333     0          
Si       Si     0.969305000000     0.702070000000     0.792486666667     0          
Si       Si     0.944490000000     0.605300000000     0.768563333333     0          
Si       Si     0.912325000000     0.557800000000     0.707036666667     0          
Si       Si     0.901480000000     0.942730000000     0.833333333333     0          
Si       Si     0.913830000000     0.557270000000     0.833333333333     0          
Si       Si     0.967385000000     0.000000000000     0.793340000000     0          
Si       Si     0.500000000000     0.560210000000     0.794003333333     0          
O        O      0.881360000000     0.564100000000     0.719843333333     0          
O        O      0.921345000000     0.500000000000     0.710870000000     0          
O        O      0.914790000000     0.574650000000     0.666666666667     0          
O        O      0.931815000000     0.592360000000     0.730770000000     0          
O        O      0.949175000000     0.853300000000     0.771353333333     0          
O        O      0.919820000000     0.910800000000     0.731103333333     0          
O        O      0.912075000000     0.913490000000     0.799050000000     0          
O        O      0.956765000000     0.950840000000     0.773003333333     0          
O        O      0.901600000000     0.921450000000     0.666666666667     0          
O        O      0.908095000000     0.000000000000     0.707116666667     0          
O        O      0.956980000000     0.000000000000     0.833333333333     0          
O        O      0.949280000000     0.664950000000     0.771506666667     0          
O        O      0.924335000000     0.586260000000     0.798930000000     0          
O        O      0.973365000000     0.577750000000     0.772916666667     0          
O        O      0.968345000000     0.687310000000     0.833333333333     0          
O        O      0.959675000000     0.759350000000     0.787543333333     0          
O        O      0.500000000000     0.695920000000     0.778553333333     0          
O        O      0.500000000000     0.822870000000     0.778653333333     0          
O        O      0.968195000000     0.831540000000     0.833333333333     0          
O        O      0.881175000000     0.557720000000     0.833333333333     0          
O        O      0.924275000000     0.500000000000     0.833333333333     0          
O        O      0.911925000000     0.000000000000     0.833333333333     0          
O        O      0.500000000000     0.582190000000     0.833333333333     0          
Si       Si     0.565515000000     0.907120000000     0.897966666667     0          
Si       Si     0.600580000000     0.941800000000     0.960370000000     0          
Si       Si     0.530705000000     0.816640000000     0.874143333333     0          
Si       Si     0.530695000000     0.702070000000     0.874180000000     0          
Si       Si     0.555510000000     0.605300000000     0.898103333333     0          
Si       Si     0.587675000000     0.557800000000     0.959630000000     0          
Si       Si     0.598520000000     0.942730000000     0.833333333333     0          
Si       Si     0.586170000000     0.557270000000     0.833333333333     0          
Si       Si     0.532615000000     0.000000000000     0.873326666667     0          
Si       Si     0.500000000000     0.560210000000     0.872663333333     0          
O        O      0.618640000000     0.564100000000     0.946823333333     0          
O        O      0.578655000000     0.500000000000     0.955796666667     0          
O        O      0.585210000000     0.574650000000     0.666666666667     0          
O        O      0.568185000000     0.592360000000     0.935896666667     0          
O        O      0.550825000000     0.853300000000     0.895313333333     0          
O        O      0.580180000000     0.910800000000     0.935563333333     0          
O        O      0.587925000000     0.913490000000     0.867616666667     0          
O        O      0.543235000000     0.950840000000     0.893663333333     0          
O        O      0.598400000000     0.921450000000     0.666666666667     0          
O        O      0.591905000000     0.000000000000     0.959550000000     0          
O        O      0.500000000000     0.000000000000     0.873793333333     0          
O        O      0.550720000000     0.664950000000     0.895160000000     0          
O        O      0.575665000000     0.586260000000     0.867736666667     0          
O        O      0.526635000000     0.577750000000     0.893750000000     0          
O        O      0.531655000000     0.687310000000     0.833333333333     0          
O        O      0.540325000000     0.759350000000     0.879123333333     0          
O        O      0.500000000000     0.695920000000     0.888113333333     0          
O        O      0.500000000000     0.822870000000     0.888013333333     0          
O        O      0.531805000000     0.831540000000     0.833333333333     0          
O        O      0.618825000000     0.557720000000     0.833333333333     0          
O        O      0.500000000000     0.500000000000     0.870473333333     0          
Si       Si     0.934485000000     0.092880000000     0.897966666667     0          
Si       Si     0.899420000000     0.058200000000     0.960370000000     0          
Si       Si     0.969295000000     0.183360000000     0.874143333333     0          
Si       Si     0.969305000000     0.297930000000     0.874180000000     0          
Si       Si     0.944490000000     0.394700000000     0.898103333333     0          
Si       Si     0.912325000000     0.442200000000     0.959630000000     0          
Si       Si     0.901480000000     0.057270000000     0.833333333333     0          
Si       Si     0.913830000000     0.442730000000     0.833333333333     0          
Si       Si     0.967385000000     0.000000000000     0.873326666667     0          
Si       Si     0.500000000000     0.439790000000     0.872663333333     0          
O        O      0.881360000000     0.435900000000     0.946823333333     0          
O        O      0.921345000000     0.500000000000     0.955796666667     0          
O        O      0.914790000000     0.425350000000     0.666666666667     0          
O        O      0.931815000000     0.407640000000     0.935896666667     0          
O        O      0.949175000000     0.146700000000     0.895313333333     0          
O        O      0.919820000000     0.089200000000     0.935563333333     0          
O        O      0.912075000000     0.086510000000     0.867616666667     0          
O        O      0.956765000000     0.049160000000     0.893663333333     0          
O        O      0.901600000000     0.078550000000     0.666666666667     0          
O        O      0.908095000000     0.000000000000     0.959550000000     0          
O        O      0.949280000000     0.335050000000     0.895160000000     0          
O        O      0.924335000000     0.413740000000     0.867736666667     0          
O        O      0.973365000000     0.422250000000     0.893750000000     0          
O        O      0.968345000000     0.312690000000     0.833333333333     0          
O        O      0.959675000000     0.240650000000     0.879123333333     0          
O        O      0.500000000000     0.304080000000     0.888113333333     0          
O        O      0.500000000000     0.177130000000     0.888013333333     0          
O        O      0.968195000000     0.168460000000     0.833333333333     0          
O        O      0.881175000000     0.442280000000     0.833333333333     0          
Si       Si     0.934485000000     0.907120000000     0.897966666667     0          
Si       Si     0.899420000000     0.941800000000     0.960370000000     0          
Si       Si     0.969295000000     0.816640000000     0.874143333333     0          
Si       Si     0.969305000000     0.702070000000     0.874180000000     0          
Si       Si     0.944490000000     0.605300000000     0.898103333333     0          
Si       Si     0.912325000000     0.557800000000     0.959630000000     0          
O        O      0.881360000000     0.564100000000     0.946823333333     0          
O        O      0.931815000000     0.592360000000     0.935896666667     0          
O        O      0.949175000000     0.853300000000     0.895313333333     0          
O        O      0.919820000000     0.910800000000     0.935563333333     0          
O        O      0.912075000000     0.913490000000     0.867616666667     0          
O        O      0.956765000000     0.950840000000     0.893663333333     0          
O        O      0.949280000000     0.664950000000     0.895160000000     0          
O        O      0.924335000000     0.586260000000     0.867736666667     0          
O        O      0.973365000000     0.577750000000     0.893750000000     0          
O        O      0.959675000000     0.759350000000     0.879123333333     0          
Si       Si     0.565515000000     0.092880000000     0.897966666667     0          
Si       Si     0.600580000000     0.058200000000     0.960370000000     0          
Si       Si     0.530705000000     0.183360000000     0.874143333333     0          
Si       Si     0.530695000000     0.297930000000     0.874180000000     0          
Si       Si     0.555510000000     0.394700000000     0.898103333333     0          
Si       Si     0.587675000000     0.442200000000     0.959630000000     0          
O        O      0.618640000000     0.435900000000     0.946823333333     0          
O        O      0.568185000000     0.407640000000     0.935896666667     0          
O        O      0.550825000000     0.146700000000     0.895313333333     0          
O        O      0.580180000000     0.089200000000     0.935563333333     0          
O        O      0.587925000000     0.086510000000     0.867616666667     0          
O        O      0.543235000000     0.049160000000     0.893663333333     0          
O        O      0.550720000000     0.335050000000     0.895160000000     0          
O        O      0.575665000000     0.413740000000     0.867736666667     0          
O        O      0.526635000000     0.422250000000     0.893750000000     0          
O        O      0.540325000000     0.240650000000     0.879123333333     0          
Si       Si     0.934485000000     0.092880000000     0.768700000000     0          
Si       Si     0.899420000000     0.058200000000     0.706296666667     0          
Si       Si     0.969295000000     0.183360000000     0.792523333333     0          
Si       Si     0.969305000000     0.297930000000     0.792486666667     0          
Si       Si     0.944490000000     0.394700000000     0.768563333333     0          
Si       Si     0.912325000000     0.442200000000     0.707036666667     0          
O        O      0.881360000000     0.435900000000     0.719843333333     0          
O        O      0.931815000000     0.407640000000     0.730770000000     0          
O        O      0.949175000000     0.146700000000     0.771353333333     0          
O        O      0.919820000000     0.089200000000     0.731103333333     0          
O        O      0.912075000000     0.086510000000     0.799050000000     0          
O        O      0.956765000000     0.049160000000     0.773003333333     0          
O        O      0.949280000000     0.335050000000     0.771506666667     0          
O        O      0.924335000000     0.413740000000     0.798930000000     0          
O        O      0.973365000000     0.422250000000     0.772916666667     0          
O        O      0.959675000000     0.240650000000     0.787543333333     0          
Si       Si     0.565515000000     0.907120000000     0.768700000000     0          
Si       Si     0.600580000000     0.941800000000     0.706296666667     0          
Si       Si     0.530705000000     0.816640000000     0.792523333333     0          
Si       Si     0.530695000000     0.702070000000     0.792486666667     0          
Si       Si     0.555510000000     0.605300000000     0.768563333333     0          
Si       Si     0.587675000000     0.557800000000     0.707036666667     0          
O        O      0.618640000000     0.564100000000     0.719843333333     0          
O        O      0.568185000000     0.592360000000     0.730770000000     0          
O        O      0.550825000000     0.853300000000     0.771353333333     0          
O        O      0.580180000000     0.910800000000     0.731103333333     0          
O        O      0.587925000000     0.913490000000     0.799050000000     0          
O        O      0.543235000000     0.950840000000     0.773003333333     0          
O        O      0.550720000000     0.664950000000     0.771506666667     0          
O        O      0.575665000000     0.586260000000     0.798930000000     0          
O        O      0.526635000000     0.577750000000     0.772916666667     0          
O        O      0.540325000000     0.759350000000     0.787543333333     0          
Si       Si     0.815515000000     0.592880000000     0.768700000000     0          
Si       Si     0.850580000000     0.558200000000     0.706296666667     0          
Si       Si     0.780705000000     0.683360000000     0.792523333333     0          
Si       Si     0.780695000000     0.797930000000     0.792486666667     0          
Si       Si     0.805510000000     0.894700000000     0.768563333333     0          
Si       Si     0.837675000000     0.942200000000     0.707036666667     0          
Si       Si     0.848520000000     0.557270000000     0.833333333333     0          
Si       Si     0.836170000000     0.942730000000     0.833333333333     0          
Si       Si     0.782615000000     0.500000000000     0.793340000000     0          
Si       Si     0.750000000000     0.939790000000     0.794003333333     0          
O        O      0.868640000000     0.935900000000     0.719843333333     0          
O        O      0.828655000000     0.000000000000     0.710870000000     0          
O        O      0.835210000000     0.925350000000     0.666666666667     0          
O        O      0.818185000000     0.907640000000     0.730770000000     0          
O        O      0.800825000000     0.646700000000     0.771353333333     0          
O        O      0.830180000000     0.589200000000     0.731103333333     0          
O        O      0.837925000000     0.586510000000     0.799050000000     0          
O        O      0.793235000000     0.549160000000     0.773003333333     0          
O        O      0.848400000000     0.578550000000     0.666666666667     0          
O        O      0.841905000000     0.500000000000     0.707116666667     0          
O        O      0.750000000000     0.500000000000     0.792873333333     0          
O        O      0.793020000000     0.500000000000     0.833333333333     0          
O        O      0.800720000000     0.835050000000     0.771506666667     0          
O        O      0.825665000000     0.913740000000     0.798930000000     0          
O        O      0.776635000000     0.922250000000     0.772916666667     0          
O        O      0.781655000000     0.812690000000     0.833333333333     0          
O        O      0.790325000000     0.740650000000     0.787543333333     0          
O        O      0.750000000000     0.804080000000     0.778553333333     0          
O        O      0.750000000000     0.677130000000     0.778653333333     0          
O        O      0.781805000000     0.668460000000     0.833333333333     0          
O        O      0.868825000000     0.942280000000     0.833333333333     0          
O        O      0.825725000000     0.000000000000     0.833333333333     0          
O        O      0.838075000000     0.500000000000     0.833333333333     0          
O        O      0.750000000000     0.917810000000     0.833333333333     0          
O        O      0.750000000000     0.000000000000     0.796193333333     0          
Si       Si     0.684485000000     0.407120000000     0.768700000000     0          
Si       Si     0.649420000000     0.441800000000     0.706296666667     0          
Si       Si     0.719295000000     0.316640000000     0.792523333333     0          
Si       Si     0.719305000000     0.202070000000     0.792486666667     0          
Si       Si     0.694490000000     0.105300000000     0.768563333333     0          
Si       Si     0.662325000000     0.057800000000     0.707036666667     0          
Si       Si     0.651480000000     0.442730000000     0.833333333333     0          
Si       Si     0.663830000000     0.057270000000     0.833333333333     0          
Si       Si     0.717385000000     0.500000000000     0.793340000000     0          
Si       Si     0.750000000000     0.060210000000     0.794003333333     0          
O        O      0.631360000000     0.064100000000     0.719843333333     0          
O        O      0.671345000000     0.000000000000     0.710870000000     0          
O        O      0.664790000000     0.074650000000     0.666666666667     0          
O        O      0.681815000000     0.092360000000     0.730770000000     0          
O        O      0.699175000000     0.353300000000     0.771353333333     0          
O        O      0.669820000000     0.410800000000     0.731103333333     0          
O        O      0.662075000000     0.413490000000     0.799050000000     0          
O        O      0.706765000000     0.450840000000     0.773003333333     0          
O        O      0.651600000000     0.421450000000     0.666666666667     0          
O        O      0.658095000000     0.500000000000     0.707116666667     0          
O        O      0.706980000000     0.500000000000     0.833333333333     0          
O        O      0.699280000000     0.164950000000     0.771506666667     0          
O        O      0.674335000000     0.086260000000     0.798930000000     0          
O        O      0.723365000000     0.077750000000     0.772916666667     0          
O        O      0.718345000000     0.187310000000     0.833333333333     0          
O        O      0.709675000000     0.259350000000     0.787543333333     0          
O        O      0.750000000000     0.195920000000     0.778553333333     0          
O        O      0.750000000000     0.322870000000     0.778653333333     0          
O        O      0.718195000000     0.331540000000     0.833333333333     0          
O        O      0.631175000000     0.057720000000     0.833333333333     0          
O        O      0.674275000000     0.000000000000     0.833333333333     0          
O        O      0.661925000000     0.500000000000     0.833333333333     0          
O        O      0.750000000000     0.082190000000     0.833333333333     0          
Si       Si     0.815515000000     0.407120000000     0.897966666667     0          
Si       Si     0.850580000000     0.441800000000     0.960370000000     0          
Si       Si     0.780705000000     0.316640000000     0.874143333333     0          
Si       Si     0.780695000000     0.202070000000     0.874180000000     0          
Si       Si     0.805510000000     0.105300000000     0.898103333333     0          
Si       Si     0.837675000000     0.057800000000     0.959630000000     0          
Si       Si     0.848520000000     0.442730000000     0.833333333333     0          
Si       Si     0.836170000000     0.057270000000     0.833333333333     0          
Si       Si     0.782615000000     0.500000000000     0.873326666667     0          
Si       Si     0.750000000000     0.060210000000     0.872663333333     0          
O        O      0.868640000000     0.064100000000     0.946823333333     0          
O        O      0.828655000000     0.000000000000     0.955796666667     0          
O        O      0.835210000000     0.074650000000     0.666666666667     0          
O        O      0.818185000000     0.092360000000     0.935896666667     0          
O        O      0.800825000000     0.353300000000     0.895313333333     0          
O        O      0.830180000000     0.410800000000     0.935563333333     0          
O        O      0.837925000000     0.413490000000     0.867616666667     0          
O        O      0.793235000000     0.450840000000     0.893663333333     0          
O        O      0.848400000000     0.421450000000     0.666666666667     0          
O        O      0.841905000000     0.500000000000     0.959550000000     0          
O        O      0.750000000000     0.500000000000     0.873793333333     0          
O        O      0.800720000000     0.164950000000     0.895160000000     0          
O        O      0.825665000000     0.086260000000     0.867736666667     0          
O        O      0.776635000000     0.077750000000     0.893750000000     0          
O        O      0.781655000000     0.187310000000     0.833333333333     0          
O        O      0.790325000000     0.259350000000     0.879123333333     0          
O        O      0.750000000000     0.195920000000     0.888113333333     0          
O        O      0.750000000000     0.322870000000     0.888013333333     0          
O        O      0.781805000000     0.331540000000     0.833333333333     0          
O        O      0.868825000000     0.057720000000     0.833333333333     0          
O        O      0.750000000000     0.000000000000     0.870473333333     0          
Si       Si     0.684485000000     0.592880000000     0.897966666667     0          
Si       Si     0.649420000000     0.558200000000     0.960370000000     0          
Si       Si     0.719295000000     0.683360000000     0.874143333333     0          
Si       Si     0.719305000000     0.797930000000     0.874180000000     0          
Si       Si     0.694490000000     0.894700000000     0.898103333333     0          
Si       Si     0.662325000000     0.942200000000     0.959630000000     0          
Si       Si     0.651480000000     0.557270000000     0.833333333333     0          
Si       Si     0.663830000000     0.942730000000     0.833333333333     0          
Si       Si     0.717385000000     0.500000000000     0.873326666667     0          
Si       Si     0.750000000000     0.939790000000     0.872663333333     0          
O        O      0.631360000000     0.935900000000     0.946823333333     0          
O        O      0.671345000000     0.000000000000     0.955796666667     0          
O        O      0.664790000000     0.925350000000     0.666666666667     0          
O        O      0.681815000000     0.907640000000     0.935896666667     0          
O        O      0.699175000000     0.646700000000     0.895313333333     0          
O        O      0.669820000000     0.589200000000     0.935563333333     0          
O        O      0.662075000000     0.586510000000     0.867616666667     0          
O        O      0.706765000000     0.549160000000     0.893663333333     0          
O        O      0.651600000000     0.578550000000     0.666666666667     0          
O        O      0.658095000000     0.500000000000     0.959550000000     0          
O        O      0.699280000000     0.835050000000     0.895160000000     0          
O        O      0.674335000000     0.913740000000     0.867736666667     0          
O        O      0.723365000000     0.922250000000     0.893750000000     0          
O        O      0.718345000000     0.812690000000     0.833333333333     0          
O        O      0.709675000000     0.740650000000     0.879123333333     0          
O        O      0.750000000000     0.804080000000     0.888113333333     0          
O        O      0.750000000000     0.677130000000     0.888013333333     0          
O        O      0.718195000000     0.668460000000     0.833333333333     0          
O        O      0.631175000000     0.942280000000     0.833333333333     0          
Si       Si     0.684485000000     0.407120000000     0.897966666667     0          
Si       Si     0.649420000000     0.441800000000     0.960370000000     0          
Si       Si     0.719295000000     0.316640000000     0.874143333333     0          
Si       Si     0.719305000000     0.202070000000     0.874180000000     0          
Si       Si     0.694490000000     0.105300000000     0.898103333333     0          
Si       Si     0.662325000000     0.057800000000     0.959630000000     0          
O        O      0.631360000000     0.064100000000     0.946823333333     0          
O        O      0.681815000000     0.092360000000     0.935896666667     0          
O        O      0.699175000000     0.353300000000     0.895313333333     0          
O        O      0.669820000000     0.410800000000     0.935563333333     0          
O        O      0.662075000000     0.413490000000     0.867616666667     0          
O        O      0.706765000000     0.450840000000     0.893663333333     0          
O        O      0.699280000000     0.164950000000     0.895160000000     0          
O        O      0.674335000000     0.086260000000     0.867736666667     0          
O        O      0.723365000000     0.077750000000     0.893750000000     0          
O        O      0.709675000000     0.259350000000     0.879123333333     0          
Si       Si     0.815515000000     0.592880000000     0.897966666667     0          
Si       Si     0.850580000000     0.558200000000     0.960370000000     0          
Si       Si     0.780705000000     0.683360000000     0.874143333333     0          
Si       Si     0.780695000000     0.797930000000     0.874180000000     0          
Si       Si     0.805510000000     0.894700000000     0.898103333333     0          
Si       Si     0.837675000000     0.942200000000     0.959630000000     0          
O        O      0.868640000000     0.935900000000     0.946823333333     0          
O        O      0.818185000000     0.907640000000     0.935896666667     0          
O        O      0.800825000000     0.646700000000     0.895313333333     0          
O        O      0.830180000000     0.589200000000     0.935563333333     0          
O        O      0.837925000000     0.586510000000     0.867616666667     0          
O        O      0.793235000000     0.549160000000     0.893663333333     0          
O        O      0.800720000000     0.835050000000     0.895160000000     0          
O        O      0.825665000000     0.913740000000     0.867736666667     0          
O        O      0.776635000000     0.922250000000     0.893750000000     0          
O        O      0.790325000000     0.740650000000     0.879123333333     0          
Si       Si     0.684485000000     0.592880000000     0.768700000000     0          
Si       Si     0.649420000000     0.558200000000     0.706296666667     0          
Si       Si     0.719295000000     0.683360000000     0.792523333333     0          
Si       Si     0.719305000000     0.797930000000     0.792486666667     0          
Si       Si     0.694490000000     0.894700000000     0.768563333333     0          
Si       Si     0.662325000000     0.942200000000     0.707036666667     0          
O        O      0.631360000000     0.935900000000     0.719843333333     0          
O        O      0.681815000000     0.907640000000     0.730770000000     0          
O        O      0.699175000000     0.646700000000     0.771353333333     0          
O        O      0.669820000000     0.589200000000     0.731103333333     0          
O        O      0.662075000000     0.586510000000     0.799050000000     0          
O        O      0.706765000000     0.549160000000     0.773003333333     0          
O        O      0.699280000000     0.835050000000     0.771506666667     0          
O        O      0.674335000000     0.913740000000     0.798930000000     0          
O        O      0.723365000000     0.922250000000     0.772916666667     0          
O        O      0.709675000000     0.740650000000     0.787543333333     0          
Si       Si     0.815515000000     0.407120000000     0.768700000000     0          
Si       Si     0.850580000000     0.441800000000     0.706296666667     0          
Si       Si     0.780705000000     0.316640000000     0.792523333333     0          
Si       Si     0.780695000000     0.202070000000     0.792486666667     0          
Si       Si     0.805510000000     0.105300000000     0.768563333333     0          
Si       Si     0.837675000000     0.057800000000     0.707036666667     0          
O        O      0.868640000000     0.064100000000     0.719843333333     0          
O        O      0.818185000000     0.092360000000     0.730770000000     0          
O        O      0.800825000000     0.353300000000     0.771353333333     0          
O        O      0.830180000000     0.410800000000     0.731103333333     0          
O        O      0.837925000000     0.413490000000     0.799050000000     0          
O        O      0.793235000000     0.450840000000     0.773003333333     0          
O        O      0.800720000000     0.164950000000     0.771506666667     0          
O        O      0.825665000000     0.086260000000     0.798930000000     0          
O        O      0.776635000000     0.077750000000     0.772916666667     0          
O        O      0.790325000000     0.259350000000     0.787543333333     0          


