data_zeolite

_audit_creation_method RASPA-1.0
_audit_creation_date 2021-6-6
_audit_author_name ''

_cell_length_a    29.94
_cell_length_b    30.056
_cell_length_c    28.107
_cell_angle_alpha 90
_cell_angle_beta  90
_cell_angle_gamma 90
_cell_volume      25292.8

_symmetry_cell_setting          orthorhombic
_symmetry_space_group_name_Hall 'P 1'
_symmetry_space_group_name_H-M  'P 1'
_symmetry_Int_Tables_number     1

_symmetry_equiv_pos_as_xyz 'x,y,z'

loop_
_atom_site_label
_atom_site_type_symbol
_atom_site_fract_x
_atom_site_fract_y
_atom_site_fract_z
_atom_site_charge
O        O      0.022166666667     0.081275000000     0.077400000000     0          
O        O      0.083333333333     0.057025000000     0.139333333333     0          
O        O      0.021933333333     0.000000000000     0.111833333333     0          
O        O      0.000000000000     0.067400000000     0.166666666667     0          
O        O      0.000000000000     0.125000000000     0.000000000000     0          
O        O      0.083333333333     0.125000000000     0.029300000000     0          
T        Si     0.031900000000     0.051425000000     0.123833333333     0          
T        Si     0.031900000000     0.125000000000     0.046000000000     0          
O        O      0.144500000000     0.168725000000     0.077400000000     0          
O        O      0.083333333333     0.192975000000     0.139333333333     0          
O        O      0.144733333333     0.000000000000     0.111833333333     0          
O        O      0.166666666667     0.182600000000     0.166666666667     0          
O        O      0.166666666667     0.125000000000     0.000000000000     0          
T        Si     0.134766666667     0.198575000000     0.123833333333     0          
T        Si     0.134766666667     0.125000000000     0.046000000000     0          
O        O      0.188833333333     0.168725000000     0.255933333333     0          
O        O      0.250000000000     0.192975000000     0.194000000000     0          
O        O      0.188600000000     0.000000000000     0.221500000000     0          
O        O      0.250000000000     0.125000000000     0.304033333333     0          
T        Si     0.198566666667     0.198575000000     0.209500000000     0          
T        Si     0.198566666667     0.125000000000     0.287333333333     0          
O        O      0.311166666667     0.081275000000     0.255933333333     0          
O        O      0.250000000000     0.057025000000     0.194000000000     0          
O        O      0.311400000000     0.000000000000     0.221500000000     0          
T        Si     0.301433333333     0.051425000000     0.209500000000     0          
T        Si     0.301433333333     0.125000000000     0.287333333333     0          
O        O      0.311166666667     0.168725000000     0.255933333333     0          
O        O      0.000000000000     0.182600000000     0.166666666667     0          
T        Si     0.301433333333     0.198575000000     0.209500000000     0          
O        O      0.188833333333     0.081275000000     0.255933333333     0          
O        O      0.166666666667     0.067400000000     0.166666666667     0          
T        Si     0.198566666667     0.051425000000     0.209500000000     0          
O        O      0.144500000000     0.081275000000     0.077400000000     0          
T        Si     0.134766666667     0.051425000000     0.123833333333     0          
O        O      0.022166666667     0.168725000000     0.077400000000     0          
T        Si     0.031900000000     0.198575000000     0.123833333333     0          
O        O      0.022166666667     0.081275000000     0.410733333333     0          
O        O      0.083333333333     0.057025000000     0.472666666667     0          
O        O      0.021933333333     0.000000000000     0.445166666667     0          
O        O      0.000000000000     0.067400000000     0.500000000000     0          
O        O      0.000000000000     0.125000000000     0.333333333333     0          
O        O      0.083333333333     0.125000000000     0.362633333333     0          
T        Si     0.031900000000     0.051425000000     0.457166666667     0          
T        Si     0.031900000000     0.125000000000     0.379333333333     0          
O        O      0.144500000000     0.168725000000     0.410733333333     0          
O        O      0.083333333333     0.192975000000     0.472666666667     0          
O        O      0.144733333333     0.000000000000     0.445166666667     0          
O        O      0.166666666667     0.182600000000     0.500000000000     0          
O        O      0.166666666667     0.125000000000     0.333333333333     0          
T        Si     0.134766666667     0.198575000000     0.457166666667     0          
T        Si     0.134766666667     0.125000000000     0.379333333333     0          
O        O      0.188833333333     0.168725000000     0.589266666667     0          
O        O      0.250000000000     0.192975000000     0.527333333333     0          
O        O      0.188600000000     0.000000000000     0.554833333333     0          
O        O      0.250000000000     0.125000000000     0.637366666667     0          
T        Si     0.198566666667     0.198575000000     0.542833333333     0          
T        Si     0.198566666667     0.125000000000     0.620666666667     0          
O        O      0.311166666667     0.081275000000     0.589266666667     0          
O        O      0.250000000000     0.057025000000     0.527333333333     0          
O        O      0.311400000000     0.000000000000     0.554833333333     0          
T        Si     0.301433333333     0.051425000000     0.542833333333     0          
T        Si     0.301433333333     0.125000000000     0.620666666667     0          
O        O      0.311166666667     0.168725000000     0.589266666667     0          
O        O      0.000000000000     0.182600000000     0.500000000000     0          
T        Si     0.301433333333     0.198575000000     0.542833333333     0          
O        O      0.188833333333     0.081275000000     0.589266666667     0          
O        O      0.166666666667     0.067400000000     0.500000000000     0          
T        Si     0.198566666667     0.051425000000     0.542833333333     0          
O        O      0.144500000000     0.081275000000     0.410733333333     0          
T        Si     0.134766666667     0.051425000000     0.457166666667     0          
O        O      0.022166666667     0.168725000000     0.410733333333     0          
T        Si     0.031900000000     0.198575000000     0.457166666667     0          
O        O      0.022166666667     0.081275000000     0.744066666667     0          
O        O      0.083333333333     0.057025000000     0.806000000000     0          
O        O      0.021933333333     0.000000000000     0.778500000000     0          
O        O      0.000000000000     0.067400000000     0.833333333333     0          
O        O      0.000000000000     0.125000000000     0.666666666667     0          
O        O      0.083333333333     0.125000000000     0.695966666667     0          
T        Si     0.031900000000     0.051425000000     0.790500000000     0          
T        Si     0.031900000000     0.125000000000     0.712666666667     0          
O        O      0.144500000000     0.168725000000     0.744066666667     0          
O        O      0.083333333333     0.192975000000     0.806000000000     0          
O        O      0.144733333333     0.000000000000     0.778500000000     0          
O        O      0.166666666667     0.182600000000     0.833333333333     0          
O        O      0.166666666667     0.125000000000     0.666666666667     0          
T        Si     0.134766666667     0.198575000000     0.790500000000     0          
T        Si     0.134766666667     0.125000000000     0.712666666667     0          
O        O      0.188833333333     0.168725000000     0.922600000000     0          
O        O      0.250000000000     0.192975000000     0.860666666667     0          
O        O      0.188600000000     0.000000000000     0.888166666667     0          
O        O      0.250000000000     0.125000000000     0.970700000000     0          
T        Si     0.198566666667     0.198575000000     0.876166666667     0          
T        Si     0.198566666667     0.125000000000     0.954000000000     0          
O        O      0.311166666667     0.081275000000     0.922600000000     0          
O        O      0.250000000000     0.057025000000     0.860666666667     0          
O        O      0.311400000000     0.000000000000     0.888166666667     0          
T        Si     0.301433333333     0.051425000000     0.876166666667     0          
T        Si     0.301433333333     0.125000000000     0.954000000000     0          
O        O      0.311166666667     0.168725000000     0.922600000000     0          
O        O      0.000000000000     0.182600000000     0.833333333333     0          
T        Si     0.301433333333     0.198575000000     0.876166666667     0          
O        O      0.188833333333     0.081275000000     0.922600000000     0          
O        O      0.166666666667     0.067400000000     0.833333333333     0          
T        Si     0.198566666667     0.051425000000     0.876166666667     0          
O        O      0.144500000000     0.081275000000     0.744066666667     0          
T        Si     0.134766666667     0.051425000000     0.790500000000     0          
O        O      0.022166666667     0.168725000000     0.744066666667     0          
T        Si     0.031900000000     0.198575000000     0.790500000000     0          
O        O      0.022166666667     0.331275000000     0.077400000000     0          
O        O      0.083333333333     0.307025000000     0.139333333333     0          
O        O      0.021933333333     0.250000000000     0.111833333333     0          
O        O      0.000000000000     0.317400000000     0.166666666667     0          
O        O      0.000000000000     0.375000000000     0.000000000000     0          
O        O      0.083333333333     0.375000000000     0.029300000000     0          
T        Si     0.031900000000     0.301425000000     0.123833333333     0          
T        Si     0.031900000000     0.375000000000     0.046000000000     0          
O        O      0.144500000000     0.418725000000     0.077400000000     0          
O        O      0.083333333333     0.442975000000     0.139333333333     0          
O        O      0.144733333333     0.250000000000     0.111833333333     0          
O        O      0.166666666667     0.432600000000     0.166666666667     0          
O        O      0.166666666667     0.375000000000     0.000000000000     0          
T        Si     0.134766666667     0.448575000000     0.123833333333     0          
T        Si     0.134766666667     0.375000000000     0.046000000000     0          
O        O      0.188833333333     0.418725000000     0.255933333333     0          
O        O      0.250000000000     0.442975000000     0.194000000000     0          
O        O      0.188600000000     0.250000000000     0.221500000000     0          
O        O      0.250000000000     0.375000000000     0.304033333333     0          
T        Si     0.198566666667     0.448575000000     0.209500000000     0          
T        Si     0.198566666667     0.375000000000     0.287333333333     0          
O        O      0.311166666667     0.331275000000     0.255933333333     0          
O        O      0.250000000000     0.307025000000     0.194000000000     0          
O        O      0.311400000000     0.250000000000     0.221500000000     0          
T        Si     0.301433333333     0.301425000000     0.209500000000     0          
T        Si     0.301433333333     0.375000000000     0.287333333333     0          
O        O      0.311166666667     0.418725000000     0.255933333333     0          
O        O      0.000000000000     0.432600000000     0.166666666667     0          
T        Si     0.301433333333     0.448575000000     0.209500000000     0          
O        O      0.188833333333     0.331275000000     0.255933333333     0          
O        O      0.166666666667     0.317400000000     0.166666666667     0          
T        Si     0.198566666667     0.301425000000     0.209500000000     0          
O        O      0.144500000000     0.331275000000     0.077400000000     0          
T        Si     0.134766666667     0.301425000000     0.123833333333     0          
O        O      0.022166666667     0.418725000000     0.077400000000     0          
T        Si     0.031900000000     0.448575000000     0.123833333333     0          
O        O      0.022166666667     0.331275000000     0.410733333333     0          
O        O      0.083333333333     0.307025000000     0.472666666667     0          
O        O      0.021933333333     0.250000000000     0.445166666667     0          
O        O      0.000000000000     0.317400000000     0.500000000000     0          
O        O      0.000000000000     0.375000000000     0.333333333333     0          
O        O      0.083333333333     0.375000000000     0.362633333333     0          
T        Si     0.031900000000     0.301425000000     0.457166666667     0          
T        Si     0.031900000000     0.375000000000     0.379333333333     0          
O        O      0.144500000000     0.418725000000     0.410733333333     0          
O        O      0.083333333333     0.442975000000     0.472666666667     0          
O        O      0.144733333333     0.250000000000     0.445166666667     0          
O        O      0.166666666667     0.432600000000     0.500000000000     0          
O        O      0.166666666667     0.375000000000     0.333333333333     0          
T        Si     0.134766666667     0.448575000000     0.457166666667     0          
T        Si     0.134766666667     0.375000000000     0.379333333333     0          
O        O      0.188833333333     0.418725000000     0.589266666667     0          
O        O      0.250000000000     0.442975000000     0.527333333333     0          
O        O      0.188600000000     0.250000000000     0.554833333333     0          
O        O      0.250000000000     0.375000000000     0.637366666667     0          
T        Si     0.198566666667     0.448575000000     0.542833333333     0          
T        Si     0.198566666667     0.375000000000     0.620666666667     0          
O        O      0.311166666667     0.331275000000     0.589266666667     0          
O        O      0.250000000000     0.307025000000     0.527333333333     0          
O        O      0.311400000000     0.250000000000     0.554833333333     0          
T        Si     0.301433333333     0.301425000000     0.542833333333     0          
T        Si     0.301433333333     0.375000000000     0.620666666667     0          
O        O      0.311166666667     0.418725000000     0.589266666667     0          
O        O      0.000000000000     0.432600000000     0.500000000000     0          
T        Si     0.301433333333     0.448575000000     0.542833333333     0          
O        O      0.188833333333     0.331275000000     0.589266666667     0          
O        O      0.166666666667     0.317400000000     0.500000000000     0          
T        Si     0.198566666667     0.301425000000     0.542833333333     0          
O        O      0.144500000000     0.331275000000     0.410733333333     0          
T        Si     0.134766666667     0.301425000000     0.457166666667     0          
O        O      0.022166666667     0.418725000000     0.410733333333     0          
T        Si     0.031900000000     0.448575000000     0.457166666667     0          
O        O      0.022166666667     0.331275000000     0.744066666667     0          
O        O      0.083333333333     0.307025000000     0.806000000000     0          
O        O      0.021933333333     0.250000000000     0.778500000000     0          
O        O      0.000000000000     0.317400000000     0.833333333333     0          
O        O      0.000000000000     0.375000000000     0.666666666667     0          
O        O      0.083333333333     0.375000000000     0.695966666667     0          
T        Si     0.031900000000     0.301425000000     0.790500000000     0          
T        Si     0.031900000000     0.375000000000     0.712666666667     0          
O        O      0.144500000000     0.418725000000     0.744066666667     0          
O        O      0.083333333333     0.442975000000     0.806000000000     0          
O        O      0.144733333333     0.250000000000     0.778500000000     0          
O        O      0.166666666667     0.432600000000     0.833333333333     0          
O        O      0.166666666667     0.375000000000     0.666666666667     0          
T        Si     0.134766666667     0.448575000000     0.790500000000     0          
T        Si     0.134766666667     0.375000000000     0.712666666667     0          
O        O      0.188833333333     0.418725000000     0.922600000000     0          
O        O      0.250000000000     0.442975000000     0.860666666667     0          
O        O      0.188600000000     0.250000000000     0.888166666667     0          
O        O      0.250000000000     0.375000000000     0.970700000000     0          
T        Si     0.198566666667     0.448575000000     0.876166666667     0          
T        Si     0.198566666667     0.375000000000     0.954000000000     0          
O        O      0.311166666667     0.331275000000     0.922600000000     0          
O        O      0.250000000000     0.307025000000     0.860666666667     0          
O        O      0.311400000000     0.250000000000     0.888166666667     0          
T        Si     0.301433333333     0.301425000000     0.876166666667     0          
T        Si     0.301433333333     0.375000000000     0.954000000000     0          
O        O      0.311166666667     0.418725000000     0.922600000000     0          
O        O      0.000000000000     0.432600000000     0.833333333333     0          
T        Si     0.301433333333     0.448575000000     0.876166666667     0          
O        O      0.188833333333     0.331275000000     0.922600000000     0          
O        O      0.166666666667     0.317400000000     0.833333333333     0          
T        Si     0.198566666667     0.301425000000     0.876166666667     0          
O        O      0.144500000000     0.331275000000     0.744066666667     0          
T        Si     0.134766666667     0.301425000000     0.790500000000     0          
O        O      0.022166666667     0.418725000000     0.744066666667     0          
T        Si     0.031900000000     0.448575000000     0.790500000000     0          
O        O      0.022166666667     0.581275000000     0.077400000000     0          
O        O      0.083333333333     0.557025000000     0.139333333333     0          
O        O      0.021933333333     0.500000000000     0.111833333333     0          
O        O      0.000000000000     0.567400000000     0.166666666667     0          
O        O      0.000000000000     0.625000000000     0.000000000000     0          
O        O      0.083333333333     0.625000000000     0.029300000000     0          
T        Si     0.031900000000     0.551425000000     0.123833333333     0          
T        Si     0.031900000000     0.625000000000     0.046000000000     0          
O        O      0.144500000000     0.668725000000     0.077400000000     0          
O        O      0.083333333333     0.692975000000     0.139333333333     0          
O        O      0.144733333333     0.500000000000     0.111833333333     0          
O        O      0.166666666667     0.682600000000     0.166666666667     0          
O        O      0.166666666667     0.625000000000     0.000000000000     0          
T        Si     0.134766666667     0.698575000000     0.123833333333     0          
T        Si     0.134766666667     0.625000000000     0.046000000000     0          
O        O      0.188833333333     0.668725000000     0.255933333333     0          
O        O      0.250000000000     0.692975000000     0.194000000000     0          
O        O      0.188600000000     0.500000000000     0.221500000000     0          
O        O      0.250000000000     0.625000000000     0.304033333333     0          
T        Si     0.198566666667     0.698575000000     0.209500000000     0          
T        Si     0.198566666667     0.625000000000     0.287333333333     0          
O        O      0.311166666667     0.581275000000     0.255933333333     0          
O        O      0.250000000000     0.557025000000     0.194000000000     0          
O        O      0.311400000000     0.500000000000     0.221500000000     0          
T        Si     0.301433333333     0.551425000000     0.209500000000     0          
T        Si     0.301433333333     0.625000000000     0.287333333333     0          
O        O      0.311166666667     0.668725000000     0.255933333333     0          
O        O      0.000000000000     0.682600000000     0.166666666667     0          
T        Si     0.301433333333     0.698575000000     0.209500000000     0          
O        O      0.188833333333     0.581275000000     0.255933333333     0          
O        O      0.166666666667     0.567400000000     0.166666666667     0          
T        Si     0.198566666667     0.551425000000     0.209500000000     0          
O        O      0.144500000000     0.581275000000     0.077400000000     0          
T        Si     0.134766666667     0.551425000000     0.123833333333     0          
O        O      0.022166666667     0.668725000000     0.077400000000     0          
T        Si     0.031900000000     0.698575000000     0.123833333333     0          
O        O      0.022166666667     0.581275000000     0.410733333333     0          
O        O      0.083333333333     0.557025000000     0.472666666667     0          
O        O      0.021933333333     0.500000000000     0.445166666667     0          
O        O      0.000000000000     0.567400000000     0.500000000000     0          
O        O      0.000000000000     0.625000000000     0.333333333333     0          
O        O      0.083333333333     0.625000000000     0.362633333333     0          
T        Si     0.031900000000     0.551425000000     0.457166666667     0          
T        Si     0.031900000000     0.625000000000     0.379333333333     0          
O        O      0.144500000000     0.668725000000     0.410733333333     0          
O        O      0.083333333333     0.692975000000     0.472666666667     0          
O        O      0.144733333333     0.500000000000     0.445166666667     0          
O        O      0.166666666667     0.682600000000     0.500000000000     0          
O        O      0.166666666667     0.625000000000     0.333333333333     0          
T        Si     0.134766666667     0.698575000000     0.457166666667     0          
T        Si     0.134766666667     0.625000000000     0.379333333333     0          
O        O      0.188833333333     0.668725000000     0.589266666667     0          
O        O      0.250000000000     0.692975000000     0.527333333333     0          
O        O      0.188600000000     0.500000000000     0.554833333333     0          
O        O      0.250000000000     0.625000000000     0.637366666667     0          
T        Si     0.198566666667     0.698575000000     0.542833333333     0          
T        Si     0.198566666667     0.625000000000     0.620666666667     0          
O        O      0.311166666667     0.581275000000     0.589266666667     0          
O        O      0.250000000000     0.557025000000     0.527333333333     0          
O        O      0.311400000000     0.500000000000     0.554833333333     0          
T        Si     0.301433333333     0.551425000000     0.542833333333     0          
T        Si     0.301433333333     0.625000000000     0.620666666667     0          
O        O      0.311166666667     0.668725000000     0.589266666667     0          
O        O      0.000000000000     0.682600000000     0.500000000000     0          
T        Si     0.301433333333     0.698575000000     0.542833333333     0          
O        O      0.188833333333     0.581275000000     0.589266666667     0          
O        O      0.166666666667     0.567400000000     0.500000000000     0          
T        Si     0.198566666667     0.551425000000     0.542833333333     0          
O        O      0.144500000000     0.581275000000     0.410733333333     0          
T        Si     0.134766666667     0.551425000000     0.457166666667     0          
O        O      0.022166666667     0.668725000000     0.410733333333     0          
T        Si     0.031900000000     0.698575000000     0.457166666667     0          
O        O      0.022166666667     0.581275000000     0.744066666667     0          
O        O      0.083333333333     0.557025000000     0.806000000000     0          
O        O      0.021933333333     0.500000000000     0.778500000000     0          
O        O      0.000000000000     0.567400000000     0.833333333333     0          
O        O      0.000000000000     0.625000000000     0.666666666667     0          
O        O      0.083333333333     0.625000000000     0.695966666667     0          
T        Si     0.031900000000     0.551425000000     0.790500000000     0          
T        Si     0.031900000000     0.625000000000     0.712666666667     0          
O        O      0.144500000000     0.668725000000     0.744066666667     0          
O        O      0.083333333333     0.692975000000     0.806000000000     0          
O        O      0.144733333333     0.500000000000     0.778500000000     0          
O        O      0.166666666667     0.682600000000     0.833333333333     0          
O        O      0.166666666667     0.625000000000     0.666666666667     0          
T        Si     0.134766666667     0.698575000000     0.790500000000     0          
T        Si     0.134766666667     0.625000000000     0.712666666667     0          
O        O      0.188833333333     0.668725000000     0.922600000000     0          
O        O      0.250000000000     0.692975000000     0.860666666667     0          
O        O      0.188600000000     0.500000000000     0.888166666667     0          
O        O      0.250000000000     0.625000000000     0.970700000000     0          
T        Si     0.198566666667     0.698575000000     0.876166666667     0          
T        Si     0.198566666667     0.625000000000     0.954000000000     0          
O        O      0.311166666667     0.581275000000     0.922600000000     0          
O        O      0.250000000000     0.557025000000     0.860666666667     0          
O        O      0.311400000000     0.500000000000     0.888166666667     0          
T        Si     0.301433333333     0.551425000000     0.876166666667     0          
T        Si     0.301433333333     0.625000000000     0.954000000000     0          
O        O      0.311166666667     0.668725000000     0.922600000000     0          
O        O      0.000000000000     0.682600000000     0.833333333333     0          
T        Si     0.301433333333     0.698575000000     0.876166666667     0          
O        O      0.188833333333     0.581275000000     0.922600000000     0          
O        O      0.166666666667     0.567400000000     0.833333333333     0          
T        Si     0.198566666667     0.551425000000     0.876166666667     0          
O        O      0.144500000000     0.581275000000     0.744066666667     0          
T        Si     0.134766666667     0.551425000000     0.790500000000     0          
O        O      0.022166666667     0.668725000000     0.744066666667     0          
T        Si     0.031900000000     0.698575000000     0.790500000000     0          
O        O      0.022166666667     0.831275000000     0.077400000000     0          
O        O      0.083333333333     0.807025000000     0.139333333333     0          
O        O      0.021933333333     0.750000000000     0.111833333333     0          
O        O      0.000000000000     0.817400000000     0.166666666667     0          
O        O      0.000000000000     0.875000000000     0.000000000000     0          
O        O      0.083333333333     0.875000000000     0.029300000000     0          
T        Si     0.031900000000     0.801425000000     0.123833333333     0          
T        Si     0.031900000000     0.875000000000     0.046000000000     0          
O        O      0.144500000000     0.918725000000     0.077400000000     0          
O        O      0.083333333333     0.942975000000     0.139333333333     0          
O        O      0.144733333333     0.750000000000     0.111833333333     0          
O        O      0.166666666667     0.932600000000     0.166666666667     0          
O        O      0.166666666667     0.875000000000     0.000000000000     0          
T        Si     0.134766666667     0.948575000000     0.123833333333     0          
T        Si     0.134766666667     0.875000000000     0.046000000000     0          
O        O      0.188833333333     0.918725000000     0.255933333333     0          
O        O      0.250000000000     0.942975000000     0.194000000000     0          
O        O      0.188600000000     0.750000000000     0.221500000000     0          
O        O      0.250000000000     0.875000000000     0.304033333333     0          
T        Si     0.198566666667     0.948575000000     0.209500000000     0          
T        Si     0.198566666667     0.875000000000     0.287333333333     0          
O        O      0.311166666667     0.831275000000     0.255933333333     0          
O        O      0.250000000000     0.807025000000     0.194000000000     0          
O        O      0.311400000000     0.750000000000     0.221500000000     0          
T        Si     0.301433333333     0.801425000000     0.209500000000     0          
T        Si     0.301433333333     0.875000000000     0.287333333333     0          
O        O      0.311166666667     0.918725000000     0.255933333333     0          
O        O      0.000000000000     0.932600000000     0.166666666667     0          
T        Si     0.301433333333     0.948575000000     0.209500000000     0          
O        O      0.188833333333     0.831275000000     0.255933333333     0          
O        O      0.166666666667     0.817400000000     0.166666666667     0          
T        Si     0.198566666667     0.801425000000     0.209500000000     0          
O        O      0.144500000000     0.831275000000     0.077400000000     0          
T        Si     0.134766666667     0.801425000000     0.123833333333     0          
O        O      0.022166666667     0.918725000000     0.077400000000     0          
T        Si     0.031900000000     0.948575000000     0.123833333333     0          
O        O      0.022166666667     0.831275000000     0.410733333333     0          
O        O      0.083333333333     0.807025000000     0.472666666667     0          
O        O      0.021933333333     0.750000000000     0.445166666667     0          
O        O      0.000000000000     0.817400000000     0.500000000000     0          
O        O      0.000000000000     0.875000000000     0.333333333333     0          
O        O      0.083333333333     0.875000000000     0.362633333333     0          
T        Si     0.031900000000     0.801425000000     0.457166666667     0          
T        Si     0.031900000000     0.875000000000     0.379333333333     0          
O        O      0.144500000000     0.918725000000     0.410733333333     0          
O        O      0.083333333333     0.942975000000     0.472666666667     0          
O        O      0.144733333333     0.750000000000     0.445166666667     0          
O        O      0.166666666667     0.932600000000     0.500000000000     0          
O        O      0.166666666667     0.875000000000     0.333333333333     0          
T        Si     0.134766666667     0.948575000000     0.457166666667     0          
T        Si     0.134766666667     0.875000000000     0.379333333333     0          
O        O      0.188833333333     0.918725000000     0.589266666667     0          
O        O      0.250000000000     0.942975000000     0.527333333333     0          
O        O      0.188600000000     0.750000000000     0.554833333333     0          
O        O      0.250000000000     0.875000000000     0.637366666667     0          
T        Si     0.198566666667     0.948575000000     0.542833333333     0          
T        Si     0.198566666667     0.875000000000     0.620666666667     0          
O        O      0.311166666667     0.831275000000     0.589266666667     0          
O        O      0.250000000000     0.807025000000     0.527333333333     0          
O        O      0.311400000000     0.750000000000     0.554833333333     0          
T        Si     0.301433333333     0.801425000000     0.542833333333     0          
T        Si     0.301433333333     0.875000000000     0.620666666667     0          
O        O      0.311166666667     0.918725000000     0.589266666667     0          
O        O      0.000000000000     0.932600000000     0.500000000000     0          
T        Si     0.301433333333     0.948575000000     0.542833333333     0          
O        O      0.188833333333     0.831275000000     0.589266666667     0          
O        O      0.166666666667     0.817400000000     0.500000000000     0          
T        Si     0.198566666667     0.801425000000     0.542833333333     0          
O        O      0.144500000000     0.831275000000     0.410733333333     0          
T        Si     0.134766666667     0.801425000000     0.457166666667     0          
O        O      0.022166666667     0.918725000000     0.410733333333     0          
T        Si     0.031900000000     0.948575000000     0.457166666667     0          
O        O      0.022166666667     0.831275000000     0.744066666667     0          
O        O      0.083333333333     0.807025000000     0.806000000000     0          
O        O      0.021933333333     0.750000000000     0.778500000000     0          
O        O      0.000000000000     0.817400000000     0.833333333333     0          
O        O      0.000000000000     0.875000000000     0.666666666667     0          
O        O      0.083333333333     0.875000000000     0.695966666667     0          
T        Si     0.031900000000     0.801425000000     0.790500000000     0          
T        Si     0.031900000000     0.875000000000     0.712666666667     0          
O        O      0.144500000000     0.918725000000     0.744066666667     0          
O        O      0.083333333333     0.942975000000     0.806000000000     0          
O        O      0.144733333333     0.750000000000     0.778500000000     0          
O        O      0.166666666667     0.932600000000     0.833333333333     0          
O        O      0.166666666667     0.875000000000     0.666666666667     0          
T        Si     0.134766666667     0.948575000000     0.790500000000     0          
T        Si     0.134766666667     0.875000000000     0.712666666667     0          
O        O      0.188833333333     0.918725000000     0.922600000000     0          
O        O      0.250000000000     0.942975000000     0.860666666667     0          
O        O      0.188600000000     0.750000000000     0.888166666667     0          
O        O      0.250000000000     0.875000000000     0.970700000000     0          
T        Si     0.198566666667     0.948575000000     0.876166666667     0          
T        Si     0.198566666667     0.875000000000     0.954000000000     0          
O        O      0.311166666667     0.831275000000     0.922600000000     0          
O        O      0.250000000000     0.807025000000     0.860666666667     0          
O        O      0.311400000000     0.750000000000     0.888166666667     0          
T        Si     0.301433333333     0.801425000000     0.876166666667     0          
T        Si     0.301433333333     0.875000000000     0.954000000000     0          
O        O      0.311166666667     0.918725000000     0.922600000000     0          
O        O      0.000000000000     0.932600000000     0.833333333333     0          
T        Si     0.301433333333     0.948575000000     0.876166666667     0          
O        O      0.188833333333     0.831275000000     0.922600000000     0          
O        O      0.166666666667     0.817400000000     0.833333333333     0          
T        Si     0.198566666667     0.801425000000     0.876166666667     0          
O        O      0.144500000000     0.831275000000     0.744066666667     0          
T        Si     0.134766666667     0.801425000000     0.790500000000     0          
O        O      0.022166666667     0.918725000000     0.744066666667     0          
T        Si     0.031900000000     0.948575000000     0.790500000000     0          
O        O      0.355500000000     0.081275000000     0.077400000000     0          
O        O      0.416666666667     0.057025000000     0.139333333333     0          
O        O      0.355266666667     0.000000000000     0.111833333333     0          
O        O      0.333333333333     0.067400000000     0.166666666667     0          
O        O      0.333333333333     0.125000000000     0.000000000000     0          
O        O      0.416666666667     0.125000000000     0.029300000000     0          
T        Si     0.365233333333     0.051425000000     0.123833333333     0          
T        Si     0.365233333333     0.125000000000     0.046000000000     0          
O        O      0.477833333333     0.168725000000     0.077400000000     0          
O        O      0.416666666667     0.192975000000     0.139333333333     0          
O        O      0.478066666667     0.000000000000     0.111833333333     0          
O        O      0.500000000000     0.182600000000     0.166666666667     0          
O        O      0.500000000000     0.125000000000     0.000000000000     0          
T        Si     0.468100000000     0.198575000000     0.123833333333     0          
T        Si     0.468100000000     0.125000000000     0.046000000000     0          
O        O      0.522166666667     0.168725000000     0.255933333333     0          
O        O      0.583333333333     0.192975000000     0.194000000000     0          
O        O      0.521933333333     0.000000000000     0.221500000000     0          
O        O      0.583333333333     0.125000000000     0.304033333333     0          
T        Si     0.531900000000     0.198575000000     0.209500000000     0          
T        Si     0.531900000000     0.125000000000     0.287333333333     0          
O        O      0.644500000000     0.081275000000     0.255933333333     0          
O        O      0.583333333333     0.057025000000     0.194000000000     0          
O        O      0.644733333333     0.000000000000     0.221500000000     0          
T        Si     0.634766666667     0.051425000000     0.209500000000     0          
T        Si     0.634766666667     0.125000000000     0.287333333333     0          
O        O      0.644500000000     0.168725000000     0.255933333333     0          
O        O      0.333333333333     0.182600000000     0.166666666667     0          
T        Si     0.634766666667     0.198575000000     0.209500000000     0          
O        O      0.522166666667     0.081275000000     0.255933333333     0          
O        O      0.500000000000     0.067400000000     0.166666666667     0          
T        Si     0.531900000000     0.051425000000     0.209500000000     0          
O        O      0.477833333333     0.081275000000     0.077400000000     0          
T        Si     0.468100000000     0.051425000000     0.123833333333     0          
O        O      0.355500000000     0.168725000000     0.077400000000     0          
T        Si     0.365233333333     0.198575000000     0.123833333333     0          
O        O      0.355500000000     0.081275000000     0.410733333333     0          
O        O      0.416666666667     0.057025000000     0.472666666667     0          
O        O      0.355266666667     0.000000000000     0.445166666667     0          
O        O      0.333333333333     0.067400000000     0.500000000000     0          
O        O      0.333333333333     0.125000000000     0.333333333333     0          
O        O      0.416666666667     0.125000000000     0.362633333333     0          
T        Si     0.365233333333     0.051425000000     0.457166666667     0          
T        Si     0.365233333333     0.125000000000     0.379333333333     0          
O        O      0.477833333333     0.168725000000     0.410733333333     0          
O        O      0.416666666667     0.192975000000     0.472666666667     0          
O        O      0.478066666667     0.000000000000     0.445166666667     0          
O        O      0.500000000000     0.182600000000     0.500000000000     0          
O        O      0.500000000000     0.125000000000     0.333333333333     0          
T        Si     0.468100000000     0.198575000000     0.457166666667     0          
T        Si     0.468100000000     0.125000000000     0.379333333333     0          
O        O      0.522166666667     0.168725000000     0.589266666667     0          
O        O      0.583333333333     0.192975000000     0.527333333333     0          
O        O      0.521933333333     0.000000000000     0.554833333333     0          
O        O      0.583333333333     0.125000000000     0.637366666667     0          
T        Si     0.531900000000     0.198575000000     0.542833333333     0          
T        Si     0.531900000000     0.125000000000     0.620666666667     0          
O        O      0.644500000000     0.081275000000     0.589266666667     0          
O        O      0.583333333333     0.057025000000     0.527333333333     0          
O        O      0.644733333333     0.000000000000     0.554833333333     0          
T        Si     0.634766666667     0.051425000000     0.542833333333     0          
T        Si     0.634766666667     0.125000000000     0.620666666667     0          
O        O      0.644500000000     0.168725000000     0.589266666667     0          
O        O      0.333333333333     0.182600000000     0.500000000000     0          
T        Si     0.634766666667     0.198575000000     0.542833333333     0          
O        O      0.522166666667     0.081275000000     0.589266666667     0          
O        O      0.500000000000     0.067400000000     0.500000000000     0          
T        Si     0.531900000000     0.051425000000     0.542833333333     0          
O        O      0.477833333333     0.081275000000     0.410733333333     0          
T        Si     0.468100000000     0.051425000000     0.457166666667     0          
O        O      0.355500000000     0.168725000000     0.410733333333     0          
T        Si     0.365233333333     0.198575000000     0.457166666667     0          
O        O      0.355500000000     0.081275000000     0.744066666667     0          
O        O      0.416666666667     0.057025000000     0.806000000000     0          
O        O      0.355266666667     0.000000000000     0.778500000000     0          
O        O      0.333333333333     0.067400000000     0.833333333333     0          
O        O      0.333333333333     0.125000000000     0.666666666667     0          
O        O      0.416666666667     0.125000000000     0.695966666667     0          
T        Si     0.365233333333     0.051425000000     0.790500000000     0          
T        Si     0.365233333333     0.125000000000     0.712666666667     0          
O        O      0.477833333333     0.168725000000     0.744066666667     0          
O        O      0.416666666667     0.192975000000     0.806000000000     0          
O        O      0.478066666667     0.000000000000     0.778500000000     0          
O        O      0.500000000000     0.182600000000     0.833333333333     0          
O        O      0.500000000000     0.125000000000     0.666666666667     0          
T        Si     0.468100000000     0.198575000000     0.790500000000     0          
T        Si     0.468100000000     0.125000000000     0.712666666667     0          
O        O      0.522166666667     0.168725000000     0.922600000000     0          
O        O      0.583333333333     0.192975000000     0.860666666667     0          
O        O      0.521933333333     0.000000000000     0.888166666667     0          
O        O      0.583333333333     0.125000000000     0.970700000000     0          
T        Si     0.531900000000     0.198575000000     0.876166666667     0          
T        Si     0.531900000000     0.125000000000     0.954000000000     0          
O        O      0.644500000000     0.081275000000     0.922600000000     0          
O        O      0.583333333333     0.057025000000     0.860666666667     0          
O        O      0.644733333333     0.000000000000     0.888166666667     0          
T        Si     0.634766666667     0.051425000000     0.876166666667     0          
T        Si     0.634766666667     0.125000000000     0.954000000000     0          
O        O      0.644500000000     0.168725000000     0.922600000000     0          
O        O      0.333333333333     0.182600000000     0.833333333333     0          
T        Si     0.634766666667     0.198575000000     0.876166666667     0          
O        O      0.522166666667     0.081275000000     0.922600000000     0          
O        O      0.500000000000     0.067400000000     0.833333333333     0          
T        Si     0.531900000000     0.051425000000     0.876166666667     0          
O        O      0.477833333333     0.081275000000     0.744066666667     0          
T        Si     0.468100000000     0.051425000000     0.790500000000     0          
O        O      0.355500000000     0.168725000000     0.744066666667     0          
T        Si     0.365233333333     0.198575000000     0.790500000000     0          
O        O      0.355500000000     0.331275000000     0.077400000000     0          
O        O      0.416666666667     0.307025000000     0.139333333333     0          
O        O      0.355266666667     0.250000000000     0.111833333333     0          
O        O      0.333333333333     0.317400000000     0.166666666667     0          
O        O      0.333333333333     0.375000000000     0.000000000000     0          
O        O      0.416666666667     0.375000000000     0.029300000000     0          
T        Si     0.365233333333     0.301425000000     0.123833333333     0          
T        Si     0.365233333333     0.375000000000     0.046000000000     0          
O        O      0.477833333333     0.418725000000     0.077400000000     0          
O        O      0.416666666667     0.442975000000     0.139333333333     0          
O        O      0.478066666667     0.250000000000     0.111833333333     0          
O        O      0.500000000000     0.432600000000     0.166666666667     0          
O        O      0.500000000000     0.375000000000     0.000000000000     0          
T        Si     0.468100000000     0.448575000000     0.123833333333     0          
T        Si     0.468100000000     0.375000000000     0.046000000000     0          
O        O      0.522166666667     0.418725000000     0.255933333333     0          
O        O      0.583333333333     0.442975000000     0.194000000000     0          
O        O      0.521933333333     0.250000000000     0.221500000000     0          
O        O      0.583333333333     0.375000000000     0.304033333333     0          
T        Si     0.531900000000     0.448575000000     0.209500000000     0          
T        Si     0.531900000000     0.375000000000     0.287333333333     0          
O        O      0.644500000000     0.331275000000     0.255933333333     0          
O        O      0.583333333333     0.307025000000     0.194000000000     0          
O        O      0.644733333333     0.250000000000     0.221500000000     0          
T        Si     0.634766666667     0.301425000000     0.209500000000     0          
T        Si     0.634766666667     0.375000000000     0.287333333333     0          
O        O      0.644500000000     0.418725000000     0.255933333333     0          
O        O      0.333333333333     0.432600000000     0.166666666667     0          
T        Si     0.634766666667     0.448575000000     0.209500000000     0          
O        O      0.522166666667     0.331275000000     0.255933333333     0          
O        O      0.500000000000     0.317400000000     0.166666666667     0          
T        Si     0.531900000000     0.301425000000     0.209500000000     0          
O        O      0.477833333333     0.331275000000     0.077400000000     0          
T        Si     0.468100000000     0.301425000000     0.123833333333     0          
O        O      0.355500000000     0.418725000000     0.077400000000     0          
T        Si     0.365233333333     0.448575000000     0.123833333333     0          
O        O      0.355500000000     0.331275000000     0.410733333333     0          
O        O      0.416666666667     0.307025000000     0.472666666667     0          
O        O      0.355266666667     0.250000000000     0.445166666667     0          
O        O      0.333333333333     0.317400000000     0.500000000000     0          
O        O      0.333333333333     0.375000000000     0.333333333333     0          
O        O      0.416666666667     0.375000000000     0.362633333333     0          
T        Si     0.365233333333     0.301425000000     0.457166666667     0          
T        Si     0.365233333333     0.375000000000     0.379333333333     0          
O        O      0.477833333333     0.418725000000     0.410733333333     0          
O        O      0.416666666667     0.442975000000     0.472666666667     0          
O        O      0.478066666667     0.250000000000     0.445166666667     0          
O        O      0.500000000000     0.432600000000     0.500000000000     0          
O        O      0.500000000000     0.375000000000     0.333333333333     0          
T        Si     0.468100000000     0.448575000000     0.457166666667     0          
T        Si     0.468100000000     0.375000000000     0.379333333333     0          
O        O      0.522166666667     0.418725000000     0.589266666667     0          
O        O      0.583333333333     0.442975000000     0.527333333333     0          
O        O      0.521933333333     0.250000000000     0.554833333333     0          
O        O      0.583333333333     0.375000000000     0.637366666667     0          
T        Si     0.531900000000     0.448575000000     0.542833333333     0          
T        Si     0.531900000000     0.375000000000     0.620666666667     0          
O        O      0.644500000000     0.331275000000     0.589266666667     0          
O        O      0.583333333333     0.307025000000     0.527333333333     0          
O        O      0.644733333333     0.250000000000     0.554833333333     0          
T        Si     0.634766666667     0.301425000000     0.542833333333     0          
T        Si     0.634766666667     0.375000000000     0.620666666667     0          
O        O      0.644500000000     0.418725000000     0.589266666667     0          
O        O      0.333333333333     0.432600000000     0.500000000000     0          
T        Si     0.634766666667     0.448575000000     0.542833333333     0          
O        O      0.522166666667     0.331275000000     0.589266666667     0          
O        O      0.500000000000     0.317400000000     0.500000000000     0          
T        Si     0.531900000000     0.301425000000     0.542833333333     0          
O        O      0.477833333333     0.331275000000     0.410733333333     0          
T        Si     0.468100000000     0.301425000000     0.457166666667     0          
O        O      0.355500000000     0.418725000000     0.410733333333     0          
T        Si     0.365233333333     0.448575000000     0.457166666667     0          
O        O      0.355500000000     0.331275000000     0.744066666667     0          
O        O      0.416666666667     0.307025000000     0.806000000000     0          
O        O      0.355266666667     0.250000000000     0.778500000000     0          
O        O      0.333333333333     0.317400000000     0.833333333333     0          
O        O      0.333333333333     0.375000000000     0.666666666667     0          
O        O      0.416666666667     0.375000000000     0.695966666667     0          
T        Si     0.365233333333     0.301425000000     0.790500000000     0          
T        Si     0.365233333333     0.375000000000     0.712666666667     0          
O        O      0.477833333333     0.418725000000     0.744066666667     0          
O        O      0.416666666667     0.442975000000     0.806000000000     0          
O        O      0.478066666667     0.250000000000     0.778500000000     0          
O        O      0.500000000000     0.432600000000     0.833333333333     0          
O        O      0.500000000000     0.375000000000     0.666666666667     0          
T        Si     0.468100000000     0.448575000000     0.790500000000     0          
T        Si     0.468100000000     0.375000000000     0.712666666667     0          
O        O      0.522166666667     0.418725000000     0.922600000000     0          
O        O      0.583333333333     0.442975000000     0.860666666667     0          
O        O      0.521933333333     0.250000000000     0.888166666667     0          
O        O      0.583333333333     0.375000000000     0.970700000000     0          
T        Si     0.531900000000     0.448575000000     0.876166666667     0          
T        Si     0.531900000000     0.375000000000     0.954000000000     0          
O        O      0.644500000000     0.331275000000     0.922600000000     0          
O        O      0.583333333333     0.307025000000     0.860666666667     0          
O        O      0.644733333333     0.250000000000     0.888166666667     0          
T        Si     0.634766666667     0.301425000000     0.876166666667     0          
T        Si     0.634766666667     0.375000000000     0.954000000000     0          
O        O      0.644500000000     0.418725000000     0.922600000000     0          
O        O      0.333333333333     0.432600000000     0.833333333333     0          
T        Si     0.634766666667     0.448575000000     0.876166666667     0          
O        O      0.522166666667     0.331275000000     0.922600000000     0          
O        O      0.500000000000     0.317400000000     0.833333333333     0          
T        Si     0.531900000000     0.301425000000     0.876166666667     0          
O        O      0.477833333333     0.331275000000     0.744066666667     0          
T        Si     0.468100000000     0.301425000000     0.790500000000     0          
O        O      0.355500000000     0.418725000000     0.744066666667     0          
T        Si     0.365233333333     0.448575000000     0.790500000000     0          
O        O      0.355500000000     0.581275000000     0.077400000000     0          
O        O      0.416666666667     0.557025000000     0.139333333333     0          
O        O      0.355266666667     0.500000000000     0.111833333333     0          
O        O      0.333333333333     0.567400000000     0.166666666667     0          
O        O      0.333333333333     0.625000000000     0.000000000000     0          
O        O      0.416666666667     0.625000000000     0.029300000000     0          
T        Si     0.365233333333     0.551425000000     0.123833333333     0          
T        Si     0.365233333333     0.625000000000     0.046000000000     0          
O        O      0.477833333333     0.668725000000     0.077400000000     0          
O        O      0.416666666667     0.692975000000     0.139333333333     0          
O        O      0.478066666667     0.500000000000     0.111833333333     0          
O        O      0.500000000000     0.682600000000     0.166666666667     0          
O        O      0.500000000000     0.625000000000     0.000000000000     0          
T        Si     0.468100000000     0.698575000000     0.123833333333     0          
T        Si     0.468100000000     0.625000000000     0.046000000000     0          
O        O      0.522166666667     0.668725000000     0.255933333333     0          
O        O      0.583333333333     0.692975000000     0.194000000000     0          
O        O      0.521933333333     0.500000000000     0.221500000000     0          
O        O      0.583333333333     0.625000000000     0.304033333333     0          
T        Si     0.531900000000     0.698575000000     0.209500000000     0          
T        Si     0.531900000000     0.625000000000     0.287333333333     0          
O        O      0.644500000000     0.581275000000     0.255933333333     0          
O        O      0.583333333333     0.557025000000     0.194000000000     0          
O        O      0.644733333333     0.500000000000     0.221500000000     0          
T        Si     0.634766666667     0.551425000000     0.209500000000     0          
T        Si     0.634766666667     0.625000000000     0.287333333333     0          
O        O      0.644500000000     0.668725000000     0.255933333333     0          
O        O      0.333333333333     0.682600000000     0.166666666667     0          
T        Si     0.634766666667     0.698575000000     0.209500000000     0          
O        O      0.522166666667     0.581275000000     0.255933333333     0          
O        O      0.500000000000     0.567400000000     0.166666666667     0          
T        Si     0.531900000000     0.551425000000     0.209500000000     0          
O        O      0.477833333333     0.581275000000     0.077400000000     0          
T        Si     0.468100000000     0.551425000000     0.123833333333     0          
O        O      0.355500000000     0.668725000000     0.077400000000     0          
T        Si     0.365233333333     0.698575000000     0.123833333333     0          
O        O      0.355500000000     0.581275000000     0.410733333333     0          
O        O      0.416666666667     0.557025000000     0.472666666667     0          
O        O      0.355266666667     0.500000000000     0.445166666667     0          
O        O      0.333333333333     0.567400000000     0.500000000000     0          
O        O      0.333333333333     0.625000000000     0.333333333333     0          
O        O      0.416666666667     0.625000000000     0.362633333333     0          
T        Si     0.365233333333     0.551425000000     0.457166666667     0          
T        Si     0.365233333333     0.625000000000     0.379333333333     0          
O        O      0.477833333333     0.668725000000     0.410733333333     0          
O        O      0.416666666667     0.692975000000     0.472666666667     0          
O        O      0.478066666667     0.500000000000     0.445166666667     0          
O        O      0.500000000000     0.682600000000     0.500000000000     0          
O        O      0.500000000000     0.625000000000     0.333333333333     0          
T        Si     0.468100000000     0.698575000000     0.457166666667     0          
T        Si     0.468100000000     0.625000000000     0.379333333333     0          
O        O      0.522166666667     0.668725000000     0.589266666667     0          
O        O      0.583333333333     0.692975000000     0.527333333333     0          
O        O      0.521933333333     0.500000000000     0.554833333333     0          
O        O      0.583333333333     0.625000000000     0.637366666667     0          
T        Si     0.531900000000     0.698575000000     0.542833333333     0          
T        Si     0.531900000000     0.625000000000     0.620666666667     0          
O        O      0.644500000000     0.581275000000     0.589266666667     0          
O        O      0.583333333333     0.557025000000     0.527333333333     0          
O        O      0.644733333333     0.500000000000     0.554833333333     0          
T        Si     0.634766666667     0.551425000000     0.542833333333     0          
T        Si     0.634766666667     0.625000000000     0.620666666667     0          
O        O      0.644500000000     0.668725000000     0.589266666667     0          
O        O      0.333333333333     0.682600000000     0.500000000000     0          
T        Si     0.634766666667     0.698575000000     0.542833333333     0          
O        O      0.522166666667     0.581275000000     0.589266666667     0          
O        O      0.500000000000     0.567400000000     0.500000000000     0          
T        Si     0.531900000000     0.551425000000     0.542833333333     0          
O        O      0.477833333333     0.581275000000     0.410733333333     0          
T        Si     0.468100000000     0.551425000000     0.457166666667     0          
O        O      0.355500000000     0.668725000000     0.410733333333     0          
T        Si     0.365233333333     0.698575000000     0.457166666667     0          
O        O      0.355500000000     0.581275000000     0.744066666667     0          
O        O      0.416666666667     0.557025000000     0.806000000000     0          
O        O      0.355266666667     0.500000000000     0.778500000000     0          
O        O      0.333333333333     0.567400000000     0.833333333333     0          
O        O      0.333333333333     0.625000000000     0.666666666667     0          
O        O      0.416666666667     0.625000000000     0.695966666667     0          
T        Si     0.365233333333     0.551425000000     0.790500000000     0          
T        Si     0.365233333333     0.625000000000     0.712666666667     0          
O        O      0.477833333333     0.668725000000     0.744066666667     0          
O        O      0.416666666667     0.692975000000     0.806000000000     0          
O        O      0.478066666667     0.500000000000     0.778500000000     0          
O        O      0.500000000000     0.682600000000     0.833333333333     0          
O        O      0.500000000000     0.625000000000     0.666666666667     0          
T        Si     0.468100000000     0.698575000000     0.790500000000     0          
T        Si     0.468100000000     0.625000000000     0.712666666667     0          
O        O      0.522166666667     0.668725000000     0.922600000000     0          
O        O      0.583333333333     0.692975000000     0.860666666667     0          
O        O      0.521933333333     0.500000000000     0.888166666667     0          
O        O      0.583333333333     0.625000000000     0.970700000000     0          
T        Si     0.531900000000     0.698575000000     0.876166666667     0          
T        Si     0.531900000000     0.625000000000     0.954000000000     0          
O        O      0.644500000000     0.581275000000     0.922600000000     0          
O        O      0.583333333333     0.557025000000     0.860666666667     0          
O        O      0.644733333333     0.500000000000     0.888166666667     0          
T        Si     0.634766666667     0.551425000000     0.876166666667     0          
T        Si     0.634766666667     0.625000000000     0.954000000000     0          
O        O      0.644500000000     0.668725000000     0.922600000000     0          
O        O      0.333333333333     0.682600000000     0.833333333333     0          
T        Si     0.634766666667     0.698575000000     0.876166666667     0          
O        O      0.522166666667     0.581275000000     0.922600000000     0          
O        O      0.500000000000     0.567400000000     0.833333333333     0          
T        Si     0.531900000000     0.551425000000     0.876166666667     0          
O        O      0.477833333333     0.581275000000     0.744066666667     0          
T        Si     0.468100000000     0.551425000000     0.790500000000     0          
O        O      0.355500000000     0.668725000000     0.744066666667     0          
T        Si     0.365233333333     0.698575000000     0.790500000000     0          
O        O      0.355500000000     0.831275000000     0.077400000000     0          
O        O      0.416666666667     0.807025000000     0.139333333333     0          
O        O      0.355266666667     0.750000000000     0.111833333333     0          
O        O      0.333333333333     0.817400000000     0.166666666667     0          
O        O      0.333333333333     0.875000000000     0.000000000000     0          
O        O      0.416666666667     0.875000000000     0.029300000000     0          
T        Si     0.365233333333     0.801425000000     0.123833333333     0          
T        Si     0.365233333333     0.875000000000     0.046000000000     0          
O        O      0.477833333333     0.918725000000     0.077400000000     0          
O        O      0.416666666667     0.942975000000     0.139333333333     0          
O        O      0.478066666667     0.750000000000     0.111833333333     0          
O        O      0.500000000000     0.932600000000     0.166666666667     0          
O        O      0.500000000000     0.875000000000     0.000000000000     0          
T        Si     0.468100000000     0.948575000000     0.123833333333     0          
T        Si     0.468100000000     0.875000000000     0.046000000000     0          
O        O      0.522166666667     0.918725000000     0.255933333333     0          
O        O      0.583333333333     0.942975000000     0.194000000000     0          
O        O      0.521933333333     0.750000000000     0.221500000000     0          
O        O      0.583333333333     0.875000000000     0.304033333333     0          
T        Si     0.531900000000     0.948575000000     0.209500000000     0          
T        Si     0.531900000000     0.875000000000     0.287333333333     0          
O        O      0.644500000000     0.831275000000     0.255933333333     0          
O        O      0.583333333333     0.807025000000     0.194000000000     0          
O        O      0.644733333333     0.750000000000     0.221500000000     0          
T        Si     0.634766666667     0.801425000000     0.209500000000     0          
T        Si     0.634766666667     0.875000000000     0.287333333333     0          
O        O      0.644500000000     0.918725000000     0.255933333333     0          
O        O      0.333333333333     0.932600000000     0.166666666667     0          
T        Si     0.634766666667     0.948575000000     0.209500000000     0          
O        O      0.522166666667     0.831275000000     0.255933333333     0          
O        O      0.500000000000     0.817400000000     0.166666666667     0          
T        Si     0.531900000000     0.801425000000     0.209500000000     0          
O        O      0.477833333333     0.831275000000     0.077400000000     0          
T        Si     0.468100000000     0.801425000000     0.123833333333     0          
O        O      0.355500000000     0.918725000000     0.077400000000     0          
T        Si     0.365233333333     0.948575000000     0.123833333333     0          
O        O      0.355500000000     0.831275000000     0.410733333333     0          
O        O      0.416666666667     0.807025000000     0.472666666667     0          
O        O      0.355266666667     0.750000000000     0.445166666667     0          
O        O      0.333333333333     0.817400000000     0.500000000000     0          
O        O      0.333333333333     0.875000000000     0.333333333333     0          
O        O      0.416666666667     0.875000000000     0.362633333333     0          
T        Si     0.365233333333     0.801425000000     0.457166666667     0          
T        Si     0.365233333333     0.875000000000     0.379333333333     0          
O        O      0.477833333333     0.918725000000     0.410733333333     0          
O        O      0.416666666667     0.942975000000     0.472666666667     0          
O        O      0.478066666667     0.750000000000     0.445166666667     0          
O        O      0.500000000000     0.932600000000     0.500000000000     0          
O        O      0.500000000000     0.875000000000     0.333333333333     0          
T        Si     0.468100000000     0.948575000000     0.457166666667     0          
T        Si     0.468100000000     0.875000000000     0.379333333333     0          
O        O      0.522166666667     0.918725000000     0.589266666667     0          
O        O      0.583333333333     0.942975000000     0.527333333333     0          
O        O      0.521933333333     0.750000000000     0.554833333333     0          
O        O      0.583333333333     0.875000000000     0.637366666667     0          
T        Si     0.531900000000     0.948575000000     0.542833333333     0          
T        Si     0.531900000000     0.875000000000     0.620666666667     0          
O        O      0.644500000000     0.831275000000     0.589266666667     0          
O        O      0.583333333333     0.807025000000     0.527333333333     0          
O        O      0.644733333333     0.750000000000     0.554833333333     0          
T        Si     0.634766666667     0.801425000000     0.542833333333     0          
T        Si     0.634766666667     0.875000000000     0.620666666667     0          
O        O      0.644500000000     0.918725000000     0.589266666667     0          
O        O      0.333333333333     0.932600000000     0.500000000000     0          
T        Si     0.634766666667     0.948575000000     0.542833333333     0          
O        O      0.522166666667     0.831275000000     0.589266666667     0          
O        O      0.500000000000     0.817400000000     0.500000000000     0          
T        Si     0.531900000000     0.801425000000     0.542833333333     0          
O        O      0.477833333333     0.831275000000     0.410733333333     0          
T        Si     0.468100000000     0.801425000000     0.457166666667     0          
O        O      0.355500000000     0.918725000000     0.410733333333     0          
T        Si     0.365233333333     0.948575000000     0.457166666667     0          
O        O      0.355500000000     0.831275000000     0.744066666667     0          
O        O      0.416666666667     0.807025000000     0.806000000000     0          
O        O      0.355266666667     0.750000000000     0.778500000000     0          
O        O      0.333333333333     0.817400000000     0.833333333333     0          
O        O      0.333333333333     0.875000000000     0.666666666667     0          
O        O      0.416666666667     0.875000000000     0.695966666667     0          
T        Si     0.365233333333     0.801425000000     0.790500000000     0          
T        Si     0.365233333333     0.875000000000     0.712666666667     0          
O        O      0.477833333333     0.918725000000     0.744066666667     0          
O        O      0.416666666667     0.942975000000     0.806000000000     0          
O        O      0.478066666667     0.750000000000     0.778500000000     0          
O        O      0.500000000000     0.932600000000     0.833333333333     0          
O        O      0.500000000000     0.875000000000     0.666666666667     0          
T        Si     0.468100000000     0.948575000000     0.790500000000     0          
T        Si     0.468100000000     0.875000000000     0.712666666667     0          
O        O      0.522166666667     0.918725000000     0.922600000000     0          
O        O      0.583333333333     0.942975000000     0.860666666667     0          
O        O      0.521933333333     0.750000000000     0.888166666667     0          
O        O      0.583333333333     0.875000000000     0.970700000000     0          
T        Si     0.531900000000     0.948575000000     0.876166666667     0          
T        Si     0.531900000000     0.875000000000     0.954000000000     0          
O        O      0.644500000000     0.831275000000     0.922600000000     0          
O        O      0.583333333333     0.807025000000     0.860666666667     0          
O        O      0.644733333333     0.750000000000     0.888166666667     0          
T        Si     0.634766666667     0.801425000000     0.876166666667     0          
T        Si     0.634766666667     0.875000000000     0.954000000000     0          
O        O      0.644500000000     0.918725000000     0.922600000000     0          
O        O      0.333333333333     0.932600000000     0.833333333333     0          
T        Si     0.634766666667     0.948575000000     0.876166666667     0          
O        O      0.522166666667     0.831275000000     0.922600000000     0          
O        O      0.500000000000     0.817400000000     0.833333333333     0          
T        Si     0.531900000000     0.801425000000     0.876166666667     0          
O        O      0.477833333333     0.831275000000     0.744066666667     0          
T        Si     0.468100000000     0.801425000000     0.790500000000     0          
O        O      0.355500000000     0.918725000000     0.744066666667     0          
T        Si     0.365233333333     0.948575000000     0.790500000000     0          
O        O      0.688833333333     0.081275000000     0.077400000000     0          
O        O      0.750000000000     0.057025000000     0.139333333333     0          
O        O      0.688600000000     0.000000000000     0.111833333333     0          
O        O      0.666666666667     0.067400000000     0.166666666667     0          
O        O      0.666666666667     0.125000000000     0.000000000000     0          
O        O      0.750000000000     0.125000000000     0.029300000000     0          
T        Si     0.698566666667     0.051425000000     0.123833333333     0          
T        Si     0.698566666667     0.125000000000     0.046000000000     0          
O        O      0.811166666667     0.168725000000     0.077400000000     0          
O        O      0.750000000000     0.192975000000     0.139333333333     0          
O        O      0.811400000000     0.000000000000     0.111833333333     0          
O        O      0.833333333333     0.182600000000     0.166666666667     0          
O        O      0.833333333333     0.125000000000     0.000000000000     0          
T        Si     0.801433333333     0.198575000000     0.123833333333     0          
T        Si     0.801433333333     0.125000000000     0.046000000000     0          
O        O      0.855500000000     0.168725000000     0.255933333333     0          
O        O      0.916666666667     0.192975000000     0.194000000000     0          
O        O      0.855266666667     0.000000000000     0.221500000000     0          
O        O      0.916666666667     0.125000000000     0.304033333333     0          
T        Si     0.865233333333     0.198575000000     0.209500000000     0          
T        Si     0.865233333333     0.125000000000     0.287333333333     0          
O        O      0.977833333333     0.081275000000     0.255933333333     0          
O        O      0.916666666667     0.057025000000     0.194000000000     0          
O        O      0.978066666667     0.000000000000     0.221500000000     0          
T        Si     0.968100000000     0.051425000000     0.209500000000     0          
T        Si     0.968100000000     0.125000000000     0.287333333333     0          
O        O      0.977833333333     0.168725000000     0.255933333333     0          
O        O      0.666666666667     0.182600000000     0.166666666667     0          
T        Si     0.968100000000     0.198575000000     0.209500000000     0          
O        O      0.855500000000     0.081275000000     0.255933333333     0          
O        O      0.833333333333     0.067400000000     0.166666666667     0          
T        Si     0.865233333333     0.051425000000     0.209500000000     0          
O        O      0.811166666667     0.081275000000     0.077400000000     0          
T        Si     0.801433333333     0.051425000000     0.123833333333     0          
O        O      0.688833333333     0.168725000000     0.077400000000     0          
T        Si     0.698566666667     0.198575000000     0.123833333333     0          
O        O      0.688833333333     0.081275000000     0.410733333333     0          
O        O      0.750000000000     0.057025000000     0.472666666667     0          
O        O      0.688600000000     0.000000000000     0.445166666667     0          
O        O      0.666666666667     0.067400000000     0.500000000000     0          
O        O      0.666666666667     0.125000000000     0.333333333333     0          
O        O      0.750000000000     0.125000000000     0.362633333333     0          
T        Si     0.698566666667     0.051425000000     0.457166666667     0          
T        Si     0.698566666667     0.125000000000     0.379333333333     0          
O        O      0.811166666667     0.168725000000     0.410733333333     0          
O        O      0.750000000000     0.192975000000     0.472666666667     0          
O        O      0.811400000000     0.000000000000     0.445166666667     0          
O        O      0.833333333333     0.182600000000     0.500000000000     0          
O        O      0.833333333333     0.125000000000     0.333333333333     0          
T        Si     0.801433333333     0.198575000000     0.457166666667     0          
T        Si     0.801433333333     0.125000000000     0.379333333333     0          
O        O      0.855500000000     0.168725000000     0.589266666667     0          
O        O      0.916666666667     0.192975000000     0.527333333333     0          
O        O      0.855266666667     0.000000000000     0.554833333333     0          
O        O      0.916666666667     0.125000000000     0.637366666667     0          
T        Si     0.865233333333     0.198575000000     0.542833333333     0          
T        Si     0.865233333333     0.125000000000     0.620666666667     0          
O        O      0.977833333333     0.081275000000     0.589266666667     0          
O        O      0.916666666667     0.057025000000     0.527333333333     0          
O        O      0.978066666667     0.000000000000     0.554833333333     0          
T        Si     0.968100000000     0.051425000000     0.542833333333     0          
T        Si     0.968100000000     0.125000000000     0.620666666667     0          
O        O      0.977833333333     0.168725000000     0.589266666667     0          
O        O      0.666666666667     0.182600000000     0.500000000000     0          
T        Si     0.968100000000     0.198575000000     0.542833333333     0          
O        O      0.855500000000     0.081275000000     0.589266666667     0          
O        O      0.833333333333     0.067400000000     0.500000000000     0          
T        Si     0.865233333333     0.051425000000     0.542833333333     0          
O        O      0.811166666667     0.081275000000     0.410733333333     0          
T        Si     0.801433333333     0.051425000000     0.457166666667     0          
O        O      0.688833333333     0.168725000000     0.410733333333     0          
T        Si     0.698566666667     0.198575000000     0.457166666667     0          
O        O      0.688833333333     0.081275000000     0.744066666667     0          
O        O      0.750000000000     0.057025000000     0.806000000000     0          
O        O      0.688600000000     0.000000000000     0.778500000000     0          
O        O      0.666666666667     0.067400000000     0.833333333333     0          
O        O      0.666666666667     0.125000000000     0.666666666667     0          
O        O      0.750000000000     0.125000000000     0.695966666667     0          
T        Si     0.698566666667     0.051425000000     0.790500000000     0          
T        Si     0.698566666667     0.125000000000     0.712666666667     0          
O        O      0.811166666667     0.168725000000     0.744066666667     0          
O        O      0.750000000000     0.192975000000     0.806000000000     0          
O        O      0.811400000000     0.000000000000     0.778500000000     0          
O        O      0.833333333333     0.182600000000     0.833333333333     0          
O        O      0.833333333333     0.125000000000     0.666666666667     0          
T        Si     0.801433333333     0.198575000000     0.790500000000     0          
T        Si     0.801433333333     0.125000000000     0.712666666667     0          
O        O      0.855500000000     0.168725000000     0.922600000000     0          
O        O      0.916666666667     0.192975000000     0.860666666667     0          
O        O      0.855266666667     0.000000000000     0.888166666667     0          
O        O      0.916666666667     0.125000000000     0.970700000000     0          
T        Si     0.865233333333     0.198575000000     0.876166666667     0          
T        Si     0.865233333333     0.125000000000     0.954000000000     0          
O        O      0.977833333333     0.081275000000     0.922600000000     0          
O        O      0.916666666667     0.057025000000     0.860666666667     0          
O        O      0.978066666667     0.000000000000     0.888166666667     0          
T        Si     0.968100000000     0.051425000000     0.876166666667     0          
T        Si     0.968100000000     0.125000000000     0.954000000000     0          
O        O      0.977833333333     0.168725000000     0.922600000000     0          
O        O      0.666666666667     0.182600000000     0.833333333333     0          
T        Si     0.968100000000     0.198575000000     0.876166666667     0          
O        O      0.855500000000     0.081275000000     0.922600000000     0          
O        O      0.833333333333     0.067400000000     0.833333333333     0          
T        Si     0.865233333333     0.051425000000     0.876166666667     0          
O        O      0.811166666667     0.081275000000     0.744066666667     0          
T        Si     0.801433333333     0.051425000000     0.790500000000     0          
O        O      0.688833333333     0.168725000000     0.744066666667     0          
T        Si     0.698566666667     0.198575000000     0.790500000000     0          
O        O      0.688833333333     0.331275000000     0.077400000000     0          
O        O      0.750000000000     0.307025000000     0.139333333333     0          
O        O      0.688600000000     0.250000000000     0.111833333333     0          
O        O      0.666666666667     0.317400000000     0.166666666667     0          
O        O      0.666666666667     0.375000000000     0.000000000000     0          
O        O      0.750000000000     0.375000000000     0.029300000000     0          
T        Si     0.698566666667     0.301425000000     0.123833333333     0          
T        Si     0.698566666667     0.375000000000     0.046000000000     0          
O        O      0.811166666667     0.418725000000     0.077400000000     0          
O        O      0.750000000000     0.442975000000     0.139333333333     0          
O        O      0.811400000000     0.250000000000     0.111833333333     0          
O        O      0.833333333333     0.432600000000     0.166666666667     0          
O        O      0.833333333333     0.375000000000     0.000000000000     0          
T        Si     0.801433333333     0.448575000000     0.123833333333     0          
T        Si     0.801433333333     0.375000000000     0.046000000000     0          
O        O      0.855500000000     0.418725000000     0.255933333333     0          
O        O      0.916666666667     0.442975000000     0.194000000000     0          
O        O      0.855266666667     0.250000000000     0.221500000000     0          
O        O      0.916666666667     0.375000000000     0.304033333333     0          
T        Si     0.865233333333     0.448575000000     0.209500000000     0          
T        Si     0.865233333333     0.375000000000     0.287333333333     0          
O        O      0.977833333333     0.331275000000     0.255933333333     0          
O        O      0.916666666667     0.307025000000     0.194000000000     0          
O        O      0.978066666667     0.250000000000     0.221500000000     0          
T        Si     0.968100000000     0.301425000000     0.209500000000     0          
T        Si     0.968100000000     0.375000000000     0.287333333333     0          
O        O      0.977833333333     0.418725000000     0.255933333333     0          
O        O      0.666666666667     0.432600000000     0.166666666667     0          
T        Si     0.968100000000     0.448575000000     0.209500000000     0          
O        O      0.855500000000     0.331275000000     0.255933333333     0          
O        O      0.833333333333     0.317400000000     0.166666666667     0          
T        Si     0.865233333333     0.301425000000     0.209500000000     0          
O        O      0.811166666667     0.331275000000     0.077400000000     0          
T        Si     0.801433333333     0.301425000000     0.123833333333     0          
O        O      0.688833333333     0.418725000000     0.077400000000     0          
T        Si     0.698566666667     0.448575000000     0.123833333333     0          
O        O      0.688833333333     0.331275000000     0.410733333333     0          
O        O      0.750000000000     0.307025000000     0.472666666667     0          
O        O      0.688600000000     0.250000000000     0.445166666667     0          
O        O      0.666666666667     0.317400000000     0.500000000000     0          
O        O      0.666666666667     0.375000000000     0.333333333333     0          
O        O      0.750000000000     0.375000000000     0.362633333333     0          
T        Si     0.698566666667     0.301425000000     0.457166666667     0          
T        Si     0.698566666667     0.375000000000     0.379333333333     0          
O        O      0.811166666667     0.418725000000     0.410733333333     0          
O        O      0.750000000000     0.442975000000     0.472666666667     0          
O        O      0.811400000000     0.250000000000     0.445166666667     0          
O        O      0.833333333333     0.432600000000     0.500000000000     0          
O        O      0.833333333333     0.375000000000     0.333333333333     0          
T        Si     0.801433333333     0.448575000000     0.457166666667     0          
T        Si     0.801433333333     0.375000000000     0.379333333333     0          
O        O      0.855500000000     0.418725000000     0.589266666667     0          
O        O      0.916666666667     0.442975000000     0.527333333333     0          
O        O      0.855266666667     0.250000000000     0.554833333333     0          
O        O      0.916666666667     0.375000000000     0.637366666667     0          
T        Si     0.865233333333     0.448575000000     0.542833333333     0          
T        Si     0.865233333333     0.375000000000     0.620666666667     0          
O        O      0.977833333333     0.331275000000     0.589266666667     0          
O        O      0.916666666667     0.307025000000     0.527333333333     0          
O        O      0.978066666667     0.250000000000     0.554833333333     0          
T        Si     0.968100000000     0.301425000000     0.542833333333     0          
T        Si     0.968100000000     0.375000000000     0.620666666667     0          
O        O      0.977833333333     0.418725000000     0.589266666667     0          
O        O      0.666666666667     0.432600000000     0.500000000000     0          
T        Si     0.968100000000     0.448575000000     0.542833333333     0          
O        O      0.855500000000     0.331275000000     0.589266666667     0          
O        O      0.833333333333     0.317400000000     0.500000000000     0          
T        Si     0.865233333333     0.301425000000     0.542833333333     0          
O        O      0.811166666667     0.331275000000     0.410733333333     0          
T        Si     0.801433333333     0.301425000000     0.457166666667     0          
O        O      0.688833333333     0.418725000000     0.410733333333     0          
T        Si     0.698566666667     0.448575000000     0.457166666667     0          
O        O      0.688833333333     0.331275000000     0.744066666667     0          
O        O      0.750000000000     0.307025000000     0.806000000000     0          
O        O      0.688600000000     0.250000000000     0.778500000000     0          
O        O      0.666666666667     0.317400000000     0.833333333333     0          
O        O      0.666666666667     0.375000000000     0.666666666667     0          
O        O      0.750000000000     0.375000000000     0.695966666667     0          
T        Si     0.698566666667     0.301425000000     0.790500000000     0          
T        Si     0.698566666667     0.375000000000     0.712666666667     0          
O        O      0.811166666667     0.418725000000     0.744066666667     0          
O        O      0.750000000000     0.442975000000     0.806000000000     0          
O        O      0.811400000000     0.250000000000     0.778500000000     0          
O        O      0.833333333333     0.432600000000     0.833333333333     0          
O        O      0.833333333333     0.375000000000     0.666666666667     0          
T        Si     0.801433333333     0.448575000000     0.790500000000     0          
T        Si     0.801433333333     0.375000000000     0.712666666667     0          
O        O      0.855500000000     0.418725000000     0.922600000000     0          
O        O      0.916666666667     0.442975000000     0.860666666667     0          
O        O      0.855266666667     0.250000000000     0.888166666667     0          
O        O      0.916666666667     0.375000000000     0.970700000000     0          
T        Si     0.865233333333     0.448575000000     0.876166666667     0          
T        Si     0.865233333333     0.375000000000     0.954000000000     0          
O        O      0.977833333333     0.331275000000     0.922600000000     0          
O        O      0.916666666667     0.307025000000     0.860666666667     0          
O        O      0.978066666667     0.250000000000     0.888166666667     0          
T        Si     0.968100000000     0.301425000000     0.876166666667     0          
T        Si     0.968100000000     0.375000000000     0.954000000000     0          
O        O      0.977833333333     0.418725000000     0.922600000000     0          
O        O      0.666666666667     0.432600000000     0.833333333333     0          
T        Si     0.968100000000     0.448575000000     0.876166666667     0          
O        O      0.855500000000     0.331275000000     0.922600000000     0          
O        O      0.833333333333     0.317400000000     0.833333333333     0          
T        Si     0.865233333333     0.301425000000     0.876166666667     0          
O        O      0.811166666667     0.331275000000     0.744066666667     0          
T        Si     0.801433333333     0.301425000000     0.790500000000     0          
O        O      0.688833333333     0.418725000000     0.744066666667     0          
T        Si     0.698566666667     0.448575000000     0.790500000000     0          
O        O      0.688833333333     0.581275000000     0.077400000000     0          
O        O      0.750000000000     0.557025000000     0.139333333333     0          
O        O      0.688600000000     0.500000000000     0.111833333333     0          
O        O      0.666666666667     0.567400000000     0.166666666667     0          
O        O      0.666666666667     0.625000000000     0.000000000000     0          
O        O      0.750000000000     0.625000000000     0.029300000000     0          
T        Si     0.698566666667     0.551425000000     0.123833333333     0          
T        Si     0.698566666667     0.625000000000     0.046000000000     0          
O        O      0.811166666667     0.668725000000     0.077400000000     0          
O        O      0.750000000000     0.692975000000     0.139333333333     0          
O        O      0.811400000000     0.500000000000     0.111833333333     0          
O        O      0.833333333333     0.682600000000     0.166666666667     0          
O        O      0.833333333333     0.625000000000     0.000000000000     0          
T        Si     0.801433333333     0.698575000000     0.123833333333     0          
T        Si     0.801433333333     0.625000000000     0.046000000000     0          
O        O      0.855500000000     0.668725000000     0.255933333333     0          
O        O      0.916666666667     0.692975000000     0.194000000000     0          
O        O      0.855266666667     0.500000000000     0.221500000000     0          
O        O      0.916666666667     0.625000000000     0.304033333333     0          
T        Si     0.865233333333     0.698575000000     0.209500000000     0          
T        Si     0.865233333333     0.625000000000     0.287333333333     0          
O        O      0.977833333333     0.581275000000     0.255933333333     0          
O        O      0.916666666667     0.557025000000     0.194000000000     0          
O        O      0.978066666667     0.500000000000     0.221500000000     0          
T        Si     0.968100000000     0.551425000000     0.209500000000     0          
T        Si     0.968100000000     0.625000000000     0.287333333333     0          
O        O      0.977833333333     0.668725000000     0.255933333333     0          
O        O      0.666666666667     0.682600000000     0.166666666667     0          
T        Si     0.968100000000     0.698575000000     0.209500000000     0          
O        O      0.855500000000     0.581275000000     0.255933333333     0          
O        O      0.833333333333     0.567400000000     0.166666666667     0          
T        Si     0.865233333333     0.551425000000     0.209500000000     0          
O        O      0.811166666667     0.581275000000     0.077400000000     0          
T        Si     0.801433333333     0.551425000000     0.123833333333     0          
O        O      0.688833333333     0.668725000000     0.077400000000     0          
T        Si     0.698566666667     0.698575000000     0.123833333333     0          
O        O      0.688833333333     0.581275000000     0.410733333333     0          
O        O      0.750000000000     0.557025000000     0.472666666667     0          
O        O      0.688600000000     0.500000000000     0.445166666667     0          
O        O      0.666666666667     0.567400000000     0.500000000000     0          
O        O      0.666666666667     0.625000000000     0.333333333333     0          
O        O      0.750000000000     0.625000000000     0.362633333333     0          
T        Si     0.698566666667     0.551425000000     0.457166666667     0          
T        Si     0.698566666667     0.625000000000     0.379333333333     0          
O        O      0.811166666667     0.668725000000     0.410733333333     0          
O        O      0.750000000000     0.692975000000     0.472666666667     0          
O        O      0.811400000000     0.500000000000     0.445166666667     0          
O        O      0.833333333333     0.682600000000     0.500000000000     0          
O        O      0.833333333333     0.625000000000     0.333333333333     0          
T        Si     0.801433333333     0.698575000000     0.457166666667     0          
T        Si     0.801433333333     0.625000000000     0.379333333333     0          
O        O      0.855500000000     0.668725000000     0.589266666667     0          
O        O      0.916666666667     0.692975000000     0.527333333333     0          
O        O      0.855266666667     0.500000000000     0.554833333333     0          
O        O      0.916666666667     0.625000000000     0.637366666667     0          
T        Si     0.865233333333     0.698575000000     0.542833333333     0          
T        Si     0.865233333333     0.625000000000     0.620666666667     0          
O        O      0.977833333333     0.581275000000     0.589266666667     0          
O        O      0.916666666667     0.557025000000     0.527333333333     0          
O        O      0.978066666667     0.500000000000     0.554833333333     0          
T        Si     0.968100000000     0.551425000000     0.542833333333     0          
T        Si     0.968100000000     0.625000000000     0.620666666667     0          
O        O      0.977833333333     0.668725000000     0.589266666667     0          
O        O      0.666666666667     0.682600000000     0.500000000000     0          
T        Si     0.968100000000     0.698575000000     0.542833333333     0          
O        O      0.855500000000     0.581275000000     0.589266666667     0          
O        O      0.833333333333     0.567400000000     0.500000000000     0          
T        Si     0.865233333333     0.551425000000     0.542833333333     0          
O        O      0.811166666667     0.581275000000     0.410733333333     0          
T        Si     0.801433333333     0.551425000000     0.457166666667     0          
O        O      0.688833333333     0.668725000000     0.410733333333     0          
T        Si     0.698566666667     0.698575000000     0.457166666667     0          
O        O      0.688833333333     0.581275000000     0.744066666667     0          
O        O      0.750000000000     0.557025000000     0.806000000000     0          
O        O      0.688600000000     0.500000000000     0.778500000000     0          
O        O      0.666666666667     0.567400000000     0.833333333333     0          
O        O      0.666666666667     0.625000000000     0.666666666667     0          
O        O      0.750000000000     0.625000000000     0.695966666667     0          
T        Si     0.698566666667     0.551425000000     0.790500000000     0          
T        Si     0.698566666667     0.625000000000     0.712666666667     0          
O        O      0.811166666667     0.668725000000     0.744066666667     0          
O        O      0.750000000000     0.692975000000     0.806000000000     0          
O        O      0.811400000000     0.500000000000     0.778500000000     0          
O        O      0.833333333333     0.682600000000     0.833333333333     0          
O        O      0.833333333333     0.625000000000     0.666666666667     0          
T        Si     0.801433333333     0.698575000000     0.790500000000     0          
T        Si     0.801433333333     0.625000000000     0.712666666667     0          
O        O      0.855500000000     0.668725000000     0.922600000000     0          
O        O      0.916666666667     0.692975000000     0.860666666667     0          
O        O      0.855266666667     0.500000000000     0.888166666667     0          
O        O      0.916666666667     0.625000000000     0.970700000000     0          
T        Si     0.865233333333     0.698575000000     0.876166666667     0          
T        Si     0.865233333333     0.625000000000     0.954000000000     0          
O        O      0.977833333333     0.581275000000     0.922600000000     0          
O        O      0.916666666667     0.557025000000     0.860666666667     0          
O        O      0.978066666667     0.500000000000     0.888166666667     0          
T        Si     0.968100000000     0.551425000000     0.876166666667     0          
T        Si     0.968100000000     0.625000000000     0.954000000000     0          
O        O      0.977833333333     0.668725000000     0.922600000000     0          
O        O      0.666666666667     0.682600000000     0.833333333333     0          
T        Si     0.968100000000     0.698575000000     0.876166666667     0          
O        O      0.855500000000     0.581275000000     0.922600000000     0          
O        O      0.833333333333     0.567400000000     0.833333333333     0          
T        Si     0.865233333333     0.551425000000     0.876166666667     0          
O        O      0.811166666667     0.581275000000     0.744066666667     0          
T        Si     0.801433333333     0.551425000000     0.790500000000     0          
O        O      0.688833333333     0.668725000000     0.744066666667     0          
T        Si     0.698566666667     0.698575000000     0.790500000000     0          
O        O      0.688833333333     0.831275000000     0.077400000000     0          
O        O      0.750000000000     0.807025000000     0.139333333333     0          
O        O      0.688600000000     0.750000000000     0.111833333333     0          
O        O      0.666666666667     0.817400000000     0.166666666667     0          
O        O      0.666666666667     0.875000000000     0.000000000000     0          
O        O      0.750000000000     0.875000000000     0.029300000000     0          
T        Si     0.698566666667     0.801425000000     0.123833333333     0          
T        Si     0.698566666667     0.875000000000     0.046000000000     0          
O        O      0.811166666667     0.918725000000     0.077400000000     0          
O        O      0.750000000000     0.942975000000     0.139333333333     0          
O        O      0.811400000000     0.750000000000     0.111833333333     0          
O        O      0.833333333333     0.932600000000     0.166666666667     0          
O        O      0.833333333333     0.875000000000     0.000000000000     0          
T        Si     0.801433333333     0.948575000000     0.123833333333     0          
T        Si     0.801433333333     0.875000000000     0.046000000000     0          
O        O      0.855500000000     0.918725000000     0.255933333333     0          
O        O      0.916666666667     0.942975000000     0.194000000000     0          
O        O      0.855266666667     0.750000000000     0.221500000000     0          
O        O      0.916666666667     0.875000000000     0.304033333333     0          
T        Si     0.865233333333     0.948575000000     0.209500000000     0          
T        Si     0.865233333333     0.875000000000     0.287333333333     0          
O        O      0.977833333333     0.831275000000     0.255933333333     0          
O        O      0.916666666667     0.807025000000     0.194000000000     0          
O        O      0.978066666667     0.750000000000     0.221500000000     0          
T        Si     0.968100000000     0.801425000000     0.209500000000     0          
T        Si     0.968100000000     0.875000000000     0.287333333333     0          
O        O      0.977833333333     0.918725000000     0.255933333333     0          
O        O      0.666666666667     0.932600000000     0.166666666667     0          
T        Si     0.968100000000     0.948575000000     0.209500000000     0          
O        O      0.855500000000     0.831275000000     0.255933333333     0          
O        O      0.833333333333     0.817400000000     0.166666666667     0          
T        Si     0.865233333333     0.801425000000     0.209500000000     0          
O        O      0.811166666667     0.831275000000     0.077400000000     0          
T        Si     0.801433333333     0.801425000000     0.123833333333     0          
O        O      0.688833333333     0.918725000000     0.077400000000     0          
T        Si     0.698566666667     0.948575000000     0.123833333333     0          
O        O      0.688833333333     0.831275000000     0.410733333333     0          
O        O      0.750000000000     0.807025000000     0.472666666667     0          
O        O      0.688600000000     0.750000000000     0.445166666667     0          
O        O      0.666666666667     0.817400000000     0.500000000000     0          
O        O      0.666666666667     0.875000000000     0.333333333333     0          
O        O      0.750000000000     0.875000000000     0.362633333333     0          
T        Si     0.698566666667     0.801425000000     0.457166666667     0          
T        Si     0.698566666667     0.875000000000     0.379333333333     0          
O        O      0.811166666667     0.918725000000     0.410733333333     0          
O        O      0.750000000000     0.942975000000     0.472666666667     0          
O        O      0.811400000000     0.750000000000     0.445166666667     0          
O        O      0.833333333333     0.932600000000     0.500000000000     0          
O        O      0.833333333333     0.875000000000     0.333333333333     0          
T        Si     0.801433333333     0.948575000000     0.457166666667     0          
T        Si     0.801433333333     0.875000000000     0.379333333333     0          
O        O      0.855500000000     0.918725000000     0.589266666667     0          
O        O      0.916666666667     0.942975000000     0.527333333333     0          
O        O      0.855266666667     0.750000000000     0.554833333333     0          
O        O      0.916666666667     0.875000000000     0.637366666667     0          
T        Si     0.865233333333     0.948575000000     0.542833333333     0          
T        Si     0.865233333333     0.875000000000     0.620666666667     0          
O        O      0.977833333333     0.831275000000     0.589266666667     0          
O        O      0.916666666667     0.807025000000     0.527333333333     0          
O        O      0.978066666667     0.750000000000     0.554833333333     0          
T        Si     0.968100000000     0.801425000000     0.542833333333     0          
T        Si     0.968100000000     0.875000000000     0.620666666667     0          
O        O      0.977833333333     0.918725000000     0.589266666667     0          
O        O      0.666666666667     0.932600000000     0.500000000000     0          
T        Si     0.968100000000     0.948575000000     0.542833333333     0          
O        O      0.855500000000     0.831275000000     0.589266666667     0          
O        O      0.833333333333     0.817400000000     0.500000000000     0          
T        Si     0.865233333333     0.801425000000     0.542833333333     0          
O        O      0.811166666667     0.831275000000     0.410733333333     0          
T        Si     0.801433333333     0.801425000000     0.457166666667     0          
O        O      0.688833333333     0.918725000000     0.410733333333     0          
T        Si     0.698566666667     0.948575000000     0.457166666667     0          
O        O      0.688833333333     0.831275000000     0.744066666667     0          
O        O      0.750000000000     0.807025000000     0.806000000000     0          
O        O      0.688600000000     0.750000000000     0.778500000000     0          
O        O      0.666666666667     0.817400000000     0.833333333333     0          
O        O      0.666666666667     0.875000000000     0.666666666667     0          
O        O      0.750000000000     0.875000000000     0.695966666667     0          
T        Si     0.698566666667     0.801425000000     0.790500000000     0          
T        Si     0.698566666667     0.875000000000     0.712666666667     0          
O        O      0.811166666667     0.918725000000     0.744066666667     0          
O        O      0.750000000000     0.942975000000     0.806000000000     0          
O        O      0.811400000000     0.750000000000     0.778500000000     0          
O        O      0.833333333333     0.932600000000     0.833333333333     0          
O        O      0.833333333333     0.875000000000     0.666666666667     0          
T        Si     0.801433333333     0.948575000000     0.790500000000     0          
T        Si     0.801433333333     0.875000000000     0.712666666667     0          
O        O      0.855500000000     0.918725000000     0.922600000000     0          
O        O      0.916666666667     0.942975000000     0.860666666667     0          
O        O      0.855266666667     0.750000000000     0.888166666667     0          
O        O      0.916666666667     0.875000000000     0.970700000000     0          
T        Si     0.865233333333     0.948575000000     0.876166666667     0          
T        Si     0.865233333333     0.875000000000     0.954000000000     0          
O        O      0.977833333333     0.831275000000     0.922600000000     0          
O        O      0.916666666667     0.807025000000     0.860666666667     0          
O        O      0.978066666667     0.750000000000     0.888166666667     0          
T        Si     0.968100000000     0.801425000000     0.876166666667     0          
T        Si     0.968100000000     0.875000000000     0.954000000000     0          
O        O      0.977833333333     0.918725000000     0.922600000000     0          
O        O      0.666666666667     0.932600000000     0.833333333333     0          
T        Si     0.968100000000     0.948575000000     0.876166666667     0          
O        O      0.855500000000     0.831275000000     0.922600000000     0          
O        O      0.833333333333     0.817400000000     0.833333333333     0          
T        Si     0.865233333333     0.801425000000     0.876166666667     0          
O        O      0.811166666667     0.831275000000     0.744066666667     0          
T        Si     0.801433333333     0.801425000000     0.790500000000     0          
O        O      0.688833333333     0.918725000000     0.744066666667     0          
T        Si     0.698566666667     0.948575000000     0.790500000000     0          


