data_zeolite

_audit_creation_method RASPA-1.0
_audit_creation_date 2021-6-7
_audit_author_name ''

_cell_length_a    27.7
_cell_length_b    27.7
_cell_length_c    25.68
_cell_angle_alpha 90
_cell_angle_beta  90
_cell_angle_gamma 90
_cell_volume      19704

_symmetry_cell_setting          tetragonal
_symmetry_space_group_name_Hall 'P 1'
_symmetry_space_group_name_H-M  'P 1'
_symmetry_Int_Tables_number     1

_symmetry_equiv_pos_as_xyz 'x,y,z'

loop_
_atom_site_label
_atom_site_type_symbol
_atom_site_fract_x
_atom_site_fract_y
_atom_site_fract_z
_atom_site_charge
O        O      0.000000000000     0.000000000000     0.000000000000     0          
O        O      0.047400000000     0.077600000000     0.218750000000     0          
O        O      0.000000000000     0.077600000000     0.057475000000     0          
T        Si     0.000000000000     0.058000000000     0.248450000000     0          
T        Si     0.000000000000     0.125000000000     0.093750000000     0          
O        O      0.125000000000     0.375000000000     0.062500000000     0          
O        O      0.047400000000     0.422400000000     0.031250000000     0          
O        O      0.047400000000     0.375000000000     0.119975000000     0          
T        Si     0.067000000000     0.375000000000     0.060950000000     0          
T        Si     0.000000000000     0.375000000000     0.156250000000     0          
O        O      0.250000000000     0.000000000000     0.125000000000     0          
O        O      0.202600000000     0.422400000000     0.093750000000     0          
O        O      0.250000000000     0.422400000000     0.182475000000     0          
T        Si     0.250000000000     0.442000000000     0.123450000000     0          
T        Si     0.250000000000     0.375000000000     0.218750000000     0          
O        O      0.125000000000     0.125000000000     0.187500000000     0          
O        O      0.202600000000     0.077600000000     0.156250000000     0          
O        O      0.202600000000     0.125000000000     0.244975000000     0          
T        Si     0.183000000000     0.125000000000     0.185950000000     0          
T        Si     0.250000000000     0.125000000000     0.031250000000     0          
O        O      0.000000000000     0.422400000000     0.192525000000     0          
T        Si     0.000000000000     0.442000000000     0.001550000000     0          
O        O      0.202600000000     0.375000000000     0.005025000000     0          
T        Si     0.183000000000     0.375000000000     0.064050000000     0          
O        O      0.250000000000     0.077600000000     0.067525000000     0          
T        Si     0.250000000000     0.058000000000     0.126550000000     0          
O        O      0.047400000000     0.125000000000     0.130025000000     0          
T        Si     0.067000000000     0.125000000000     0.189050000000     0          
O        O      0.452600000000     0.422400000000     0.031250000000     0          
O        O      0.375000000000     0.125000000000     0.187500000000     0          
O        O      0.452600000000     0.077600000000     0.218750000000     0          
O        O      0.452600000000     0.125000000000     0.130025000000     0          
T        Si     0.433000000000     0.125000000000     0.189050000000     0          
O        O      0.297400000000     0.077600000000     0.156250000000     0          
O        O      0.375000000000     0.375000000000     0.062500000000     0          
O        O      0.297400000000     0.422400000000     0.093750000000     0          
O        O      0.297400000000     0.375000000000     0.005025000000     0          
T        Si     0.317000000000     0.375000000000     0.064050000000     0          
O        O      0.297400000000     0.125000000000     0.244975000000     0          
T        Si     0.317000000000     0.125000000000     0.185950000000     0          
O        O      0.452600000000     0.375000000000     0.119975000000     0          
T        Si     0.433000000000     0.375000000000     0.060950000000     0          
O        O      0.250000000000     0.250000000000     0.125000000000     0          
O        O      0.297400000000     0.327600000000     0.093750000000     0          
O        O      0.250000000000     0.327600000000     0.182475000000     0          
T        Si     0.250000000000     0.308000000000     0.123450000000     0          
O        O      0.297400000000     0.172400000000     0.156250000000     0          
O        O      0.000000000000     0.250000000000     0.000000000000     0          
O        O      0.452600000000     0.172400000000     0.218750000000     0          
O        O      0.000000000000     0.172400000000     0.057475000000     0          
T        Si     0.000000000000     0.192000000000     0.248450000000     0          
O        O      0.452600000000     0.327600000000     0.031250000000     0          
O        O      0.250000000000     0.172400000000     0.067525000000     0          
T        Si     0.250000000000     0.192000000000     0.126550000000     0          
O        O      0.000000000000     0.327600000000     0.192525000000     0          
T        Si     0.000000000000     0.308000000000     0.001550000000     0          
O        O      0.202600000000     0.172400000000     0.156250000000     0          
O        O      0.202600000000     0.327600000000     0.093750000000     0          
O        O      0.047400000000     0.327600000000     0.031250000000     0          
O        O      0.047400000000     0.172400000000     0.218750000000     0          
O        O      0.000000000000     0.000000000000     0.250000000000     0          
O        O      0.047400000000     0.077600000000     0.468750000000     0          
O        O      0.000000000000     0.077600000000     0.307475000000     0          
T        Si     0.000000000000     0.058000000000     0.498450000000     0          
T        Si     0.000000000000     0.125000000000     0.343750000000     0          
O        O      0.125000000000     0.375000000000     0.312500000000     0          
O        O      0.047400000000     0.422400000000     0.281250000000     0          
O        O      0.047400000000     0.375000000000     0.369975000000     0          
T        Si     0.067000000000     0.375000000000     0.310950000000     0          
T        Si     0.000000000000     0.375000000000     0.406250000000     0          
O        O      0.250000000000     0.000000000000     0.375000000000     0          
O        O      0.202600000000     0.422400000000     0.343750000000     0          
O        O      0.250000000000     0.422400000000     0.432475000000     0          
T        Si     0.250000000000     0.442000000000     0.373450000000     0          
T        Si     0.250000000000     0.375000000000     0.468750000000     0          
O        O      0.125000000000     0.125000000000     0.437500000000     0          
O        O      0.202600000000     0.077600000000     0.406250000000     0          
O        O      0.202600000000     0.125000000000     0.494975000000     0          
T        Si     0.183000000000     0.125000000000     0.435950000000     0          
T        Si     0.250000000000     0.125000000000     0.281250000000     0          
O        O      0.000000000000     0.422400000000     0.442525000000     0          
T        Si     0.000000000000     0.442000000000     0.251550000000     0          
O        O      0.202600000000     0.375000000000     0.255025000000     0          
T        Si     0.183000000000     0.375000000000     0.314050000000     0          
O        O      0.250000000000     0.077600000000     0.317525000000     0          
T        Si     0.250000000000     0.058000000000     0.376550000000     0          
O        O      0.047400000000     0.125000000000     0.380025000000     0          
T        Si     0.067000000000     0.125000000000     0.439050000000     0          
O        O      0.452600000000     0.422400000000     0.281250000000     0          
O        O      0.375000000000     0.125000000000     0.437500000000     0          
O        O      0.452600000000     0.077600000000     0.468750000000     0          
O        O      0.452600000000     0.125000000000     0.380025000000     0          
T        Si     0.433000000000     0.125000000000     0.439050000000     0          
O        O      0.297400000000     0.077600000000     0.406250000000     0          
O        O      0.375000000000     0.375000000000     0.312500000000     0          
O        O      0.297400000000     0.422400000000     0.343750000000     0          
O        O      0.297400000000     0.375000000000     0.255025000000     0          
T        Si     0.317000000000     0.375000000000     0.314050000000     0          
O        O      0.297400000000     0.125000000000     0.494975000000     0          
T        Si     0.317000000000     0.125000000000     0.435950000000     0          
O        O      0.452600000000     0.375000000000     0.369975000000     0          
T        Si     0.433000000000     0.375000000000     0.310950000000     0          
O        O      0.250000000000     0.250000000000     0.375000000000     0          
O        O      0.297400000000     0.327600000000     0.343750000000     0          
O        O      0.250000000000     0.327600000000     0.432475000000     0          
T        Si     0.250000000000     0.308000000000     0.373450000000     0          
O        O      0.297400000000     0.172400000000     0.406250000000     0          
O        O      0.000000000000     0.250000000000     0.250000000000     0          
O        O      0.452600000000     0.172400000000     0.468750000000     0          
O        O      0.000000000000     0.172400000000     0.307475000000     0          
T        Si     0.000000000000     0.192000000000     0.498450000000     0          
O        O      0.452600000000     0.327600000000     0.281250000000     0          
O        O      0.250000000000     0.172400000000     0.317525000000     0          
T        Si     0.250000000000     0.192000000000     0.376550000000     0          
O        O      0.000000000000     0.327600000000     0.442525000000     0          
T        Si     0.000000000000     0.308000000000     0.251550000000     0          
O        O      0.202600000000     0.172400000000     0.406250000000     0          
O        O      0.202600000000     0.327600000000     0.343750000000     0          
O        O      0.047400000000     0.327600000000     0.281250000000     0          
O        O      0.047400000000     0.172400000000     0.468750000000     0          
O        O      0.000000000000     0.000000000000     0.500000000000     0          
O        O      0.047400000000     0.077600000000     0.718750000000     0          
O        O      0.000000000000     0.077600000000     0.557475000000     0          
T        Si     0.000000000000     0.058000000000     0.748450000000     0          
T        Si     0.000000000000     0.125000000000     0.593750000000     0          
O        O      0.125000000000     0.375000000000     0.562500000000     0          
O        O      0.047400000000     0.422400000000     0.531250000000     0          
O        O      0.047400000000     0.375000000000     0.619975000000     0          
T        Si     0.067000000000     0.375000000000     0.560950000000     0          
T        Si     0.000000000000     0.375000000000     0.656250000000     0          
O        O      0.250000000000     0.000000000000     0.625000000000     0          
O        O      0.202600000000     0.422400000000     0.593750000000     0          
O        O      0.250000000000     0.422400000000     0.682475000000     0          
T        Si     0.250000000000     0.442000000000     0.623450000000     0          
T        Si     0.250000000000     0.375000000000     0.718750000000     0          
O        O      0.125000000000     0.125000000000     0.687500000000     0          
O        O      0.202600000000     0.077600000000     0.656250000000     0          
O        O      0.202600000000     0.125000000000     0.744975000000     0          
T        Si     0.183000000000     0.125000000000     0.685950000000     0          
T        Si     0.250000000000     0.125000000000     0.531250000000     0          
O        O      0.000000000000     0.422400000000     0.692525000000     0          
T        Si     0.000000000000     0.442000000000     0.501550000000     0          
O        O      0.202600000000     0.375000000000     0.505025000000     0          
T        Si     0.183000000000     0.375000000000     0.564050000000     0          
O        O      0.250000000000     0.077600000000     0.567525000000     0          
T        Si     0.250000000000     0.058000000000     0.626550000000     0          
O        O      0.047400000000     0.125000000000     0.630025000000     0          
T        Si     0.067000000000     0.125000000000     0.689050000000     0          
O        O      0.452600000000     0.422400000000     0.531250000000     0          
O        O      0.375000000000     0.125000000000     0.687500000000     0          
O        O      0.452600000000     0.077600000000     0.718750000000     0          
O        O      0.452600000000     0.125000000000     0.630025000000     0          
T        Si     0.433000000000     0.125000000000     0.689050000000     0          
O        O      0.297400000000     0.077600000000     0.656250000000     0          
O        O      0.375000000000     0.375000000000     0.562500000000     0          
O        O      0.297400000000     0.422400000000     0.593750000000     0          
O        O      0.297400000000     0.375000000000     0.505025000000     0          
T        Si     0.317000000000     0.375000000000     0.564050000000     0          
O        O      0.297400000000     0.125000000000     0.744975000000     0          
T        Si     0.317000000000     0.125000000000     0.685950000000     0          
O        O      0.452600000000     0.375000000000     0.619975000000     0          
T        Si     0.433000000000     0.375000000000     0.560950000000     0          
O        O      0.250000000000     0.250000000000     0.625000000000     0          
O        O      0.297400000000     0.327600000000     0.593750000000     0          
O        O      0.250000000000     0.327600000000     0.682475000000     0          
T        Si     0.250000000000     0.308000000000     0.623450000000     0          
O        O      0.297400000000     0.172400000000     0.656250000000     0          
O        O      0.000000000000     0.250000000000     0.500000000000     0          
O        O      0.452600000000     0.172400000000     0.718750000000     0          
O        O      0.000000000000     0.172400000000     0.557475000000     0          
T        Si     0.000000000000     0.192000000000     0.748450000000     0          
O        O      0.452600000000     0.327600000000     0.531250000000     0          
O        O      0.250000000000     0.172400000000     0.567525000000     0          
T        Si     0.250000000000     0.192000000000     0.626550000000     0          
O        O      0.000000000000     0.327600000000     0.692525000000     0          
T        Si     0.000000000000     0.308000000000     0.501550000000     0          
O        O      0.202600000000     0.172400000000     0.656250000000     0          
O        O      0.202600000000     0.327600000000     0.593750000000     0          
O        O      0.047400000000     0.327600000000     0.531250000000     0          
O        O      0.047400000000     0.172400000000     0.718750000000     0          
O        O      0.000000000000     0.000000000000     0.750000000000     0          
O        O      0.047400000000     0.077600000000     0.968750000000     0          
O        O      0.000000000000     0.077600000000     0.807475000000     0          
T        Si     0.000000000000     0.058000000000     0.998450000000     0          
T        Si     0.000000000000     0.125000000000     0.843750000000     0          
O        O      0.125000000000     0.375000000000     0.812500000000     0          
O        O      0.047400000000     0.422400000000     0.781250000000     0          
O        O      0.047400000000     0.375000000000     0.869975000000     0          
T        Si     0.067000000000     0.375000000000     0.810950000000     0          
T        Si     0.000000000000     0.375000000000     0.906250000000     0          
O        O      0.250000000000     0.000000000000     0.875000000000     0          
O        O      0.202600000000     0.422400000000     0.843750000000     0          
O        O      0.250000000000     0.422400000000     0.932475000000     0          
T        Si     0.250000000000     0.442000000000     0.873450000000     0          
T        Si     0.250000000000     0.375000000000     0.968750000000     0          
O        O      0.125000000000     0.125000000000     0.937500000000     0          
O        O      0.202600000000     0.077600000000     0.906250000000     0          
O        O      0.202600000000     0.125000000000     0.994975000000     0          
T        Si     0.183000000000     0.125000000000     0.935950000000     0          
T        Si     0.250000000000     0.125000000000     0.781250000000     0          
O        O      0.000000000000     0.422400000000     0.942525000000     0          
T        Si     0.000000000000     0.442000000000     0.751550000000     0          
O        O      0.202600000000     0.375000000000     0.755025000000     0          
T        Si     0.183000000000     0.375000000000     0.814050000000     0          
O        O      0.250000000000     0.077600000000     0.817525000000     0          
T        Si     0.250000000000     0.058000000000     0.876550000000     0          
O        O      0.047400000000     0.125000000000     0.880025000000     0          
T        Si     0.067000000000     0.125000000000     0.939050000000     0          
O        O      0.452600000000     0.422400000000     0.781250000000     0          
O        O      0.375000000000     0.125000000000     0.937500000000     0          
O        O      0.452600000000     0.077600000000     0.968750000000     0          
O        O      0.452600000000     0.125000000000     0.880025000000     0          
T        Si     0.433000000000     0.125000000000     0.939050000000     0          
O        O      0.297400000000     0.077600000000     0.906250000000     0          
O        O      0.375000000000     0.375000000000     0.812500000000     0          
O        O      0.297400000000     0.422400000000     0.843750000000     0          
O        O      0.297400000000     0.375000000000     0.755025000000     0          
T        Si     0.317000000000     0.375000000000     0.814050000000     0          
O        O      0.297400000000     0.125000000000     0.994975000000     0          
T        Si     0.317000000000     0.125000000000     0.935950000000     0          
O        O      0.452600000000     0.375000000000     0.869975000000     0          
T        Si     0.433000000000     0.375000000000     0.810950000000     0          
O        O      0.250000000000     0.250000000000     0.875000000000     0          
O        O      0.297400000000     0.327600000000     0.843750000000     0          
O        O      0.250000000000     0.327600000000     0.932475000000     0          
T        Si     0.250000000000     0.308000000000     0.873450000000     0          
O        O      0.297400000000     0.172400000000     0.906250000000     0          
O        O      0.000000000000     0.250000000000     0.750000000000     0          
O        O      0.452600000000     0.172400000000     0.968750000000     0          
O        O      0.000000000000     0.172400000000     0.807475000000     0          
T        Si     0.000000000000     0.192000000000     0.998450000000     0          
O        O      0.452600000000     0.327600000000     0.781250000000     0          
O        O      0.250000000000     0.172400000000     0.817525000000     0          
T        Si     0.250000000000     0.192000000000     0.876550000000     0          
O        O      0.000000000000     0.327600000000     0.942525000000     0          
T        Si     0.000000000000     0.308000000000     0.751550000000     0          
O        O      0.202600000000     0.172400000000     0.906250000000     0          
O        O      0.202600000000     0.327600000000     0.843750000000     0          
O        O      0.047400000000     0.327600000000     0.781250000000     0          
O        O      0.047400000000     0.172400000000     0.968750000000     0          
O        O      0.000000000000     0.500000000000     0.000000000000     0          
O        O      0.047400000000     0.577600000000     0.218750000000     0          
O        O      0.000000000000     0.577600000000     0.057475000000     0          
T        Si     0.000000000000     0.558000000000     0.248450000000     0          
T        Si     0.000000000000     0.625000000000     0.093750000000     0          
O        O      0.125000000000     0.875000000000     0.062500000000     0          
O        O      0.047400000000     0.922400000000     0.031250000000     0          
O        O      0.047400000000     0.875000000000     0.119975000000     0          
T        Si     0.067000000000     0.875000000000     0.060950000000     0          
T        Si     0.000000000000     0.875000000000     0.156250000000     0          
O        O      0.250000000000     0.500000000000     0.125000000000     0          
O        O      0.202600000000     0.922400000000     0.093750000000     0          
O        O      0.250000000000     0.922400000000     0.182475000000     0          
T        Si     0.250000000000     0.942000000000     0.123450000000     0          
T        Si     0.250000000000     0.875000000000     0.218750000000     0          
O        O      0.125000000000     0.625000000000     0.187500000000     0          
O        O      0.202600000000     0.577600000000     0.156250000000     0          
O        O      0.202600000000     0.625000000000     0.244975000000     0          
T        Si     0.183000000000     0.625000000000     0.185950000000     0          
T        Si     0.250000000000     0.625000000000     0.031250000000     0          
O        O      0.000000000000     0.922400000000     0.192525000000     0          
T        Si     0.000000000000     0.942000000000     0.001550000000     0          
O        O      0.202600000000     0.875000000000     0.005025000000     0          
T        Si     0.183000000000     0.875000000000     0.064050000000     0          
O        O      0.250000000000     0.577600000000     0.067525000000     0          
T        Si     0.250000000000     0.558000000000     0.126550000000     0          
O        O      0.047400000000     0.625000000000     0.130025000000     0          
T        Si     0.067000000000     0.625000000000     0.189050000000     0          
O        O      0.452600000000     0.922400000000     0.031250000000     0          
O        O      0.375000000000     0.625000000000     0.187500000000     0          
O        O      0.452600000000     0.577600000000     0.218750000000     0          
O        O      0.452600000000     0.625000000000     0.130025000000     0          
T        Si     0.433000000000     0.625000000000     0.189050000000     0          
O        O      0.297400000000     0.577600000000     0.156250000000     0          
O        O      0.375000000000     0.875000000000     0.062500000000     0          
O        O      0.297400000000     0.922400000000     0.093750000000     0          
O        O      0.297400000000     0.875000000000     0.005025000000     0          
T        Si     0.317000000000     0.875000000000     0.064050000000     0          
O        O      0.297400000000     0.625000000000     0.244975000000     0          
T        Si     0.317000000000     0.625000000000     0.185950000000     0          
O        O      0.452600000000     0.875000000000     0.119975000000     0          
T        Si     0.433000000000     0.875000000000     0.060950000000     0          
O        O      0.250000000000     0.750000000000     0.125000000000     0          
O        O      0.297400000000     0.827600000000     0.093750000000     0          
O        O      0.250000000000     0.827600000000     0.182475000000     0          
T        Si     0.250000000000     0.808000000000     0.123450000000     0          
O        O      0.297400000000     0.672400000000     0.156250000000     0          
O        O      0.000000000000     0.750000000000     0.000000000000     0          
O        O      0.452600000000     0.672400000000     0.218750000000     0          
O        O      0.000000000000     0.672400000000     0.057475000000     0          
T        Si     0.000000000000     0.692000000000     0.248450000000     0          
O        O      0.452600000000     0.827600000000     0.031250000000     0          
O        O      0.250000000000     0.672400000000     0.067525000000     0          
T        Si     0.250000000000     0.692000000000     0.126550000000     0          
O        O      0.000000000000     0.827600000000     0.192525000000     0          
T        Si     0.000000000000     0.808000000000     0.001550000000     0          
O        O      0.202600000000     0.672400000000     0.156250000000     0          
O        O      0.202600000000     0.827600000000     0.093750000000     0          
O        O      0.047400000000     0.827600000000     0.031250000000     0          
O        O      0.047400000000     0.672400000000     0.218750000000     0          
O        O      0.000000000000     0.500000000000     0.250000000000     0          
O        O      0.047400000000     0.577600000000     0.468750000000     0          
O        O      0.000000000000     0.577600000000     0.307475000000     0          
T        Si     0.000000000000     0.558000000000     0.498450000000     0          
T        Si     0.000000000000     0.625000000000     0.343750000000     0          
O        O      0.125000000000     0.875000000000     0.312500000000     0          
O        O      0.047400000000     0.922400000000     0.281250000000     0          
O        O      0.047400000000     0.875000000000     0.369975000000     0          
T        Si     0.067000000000     0.875000000000     0.310950000000     0          
T        Si     0.000000000000     0.875000000000     0.406250000000     0          
O        O      0.250000000000     0.500000000000     0.375000000000     0          
O        O      0.202600000000     0.922400000000     0.343750000000     0          
O        O      0.250000000000     0.922400000000     0.432475000000     0          
T        Si     0.250000000000     0.942000000000     0.373450000000     0          
T        Si     0.250000000000     0.875000000000     0.468750000000     0          
O        O      0.125000000000     0.625000000000     0.437500000000     0          
O        O      0.202600000000     0.577600000000     0.406250000000     0          
O        O      0.202600000000     0.625000000000     0.494975000000     0          
T        Si     0.183000000000     0.625000000000     0.435950000000     0          
T        Si     0.250000000000     0.625000000000     0.281250000000     0          
O        O      0.000000000000     0.922400000000     0.442525000000     0          
T        Si     0.000000000000     0.942000000000     0.251550000000     0          
O        O      0.202600000000     0.875000000000     0.255025000000     0          
T        Si     0.183000000000     0.875000000000     0.314050000000     0          
O        O      0.250000000000     0.577600000000     0.317525000000     0          
T        Si     0.250000000000     0.558000000000     0.376550000000     0          
O        O      0.047400000000     0.625000000000     0.380025000000     0          
T        Si     0.067000000000     0.625000000000     0.439050000000     0          
O        O      0.452600000000     0.922400000000     0.281250000000     0          
O        O      0.375000000000     0.625000000000     0.437500000000     0          
O        O      0.452600000000     0.577600000000     0.468750000000     0          
O        O      0.452600000000     0.625000000000     0.380025000000     0          
T        Si     0.433000000000     0.625000000000     0.439050000000     0          
O        O      0.297400000000     0.577600000000     0.406250000000     0          
O        O      0.375000000000     0.875000000000     0.312500000000     0          
O        O      0.297400000000     0.922400000000     0.343750000000     0          
O        O      0.297400000000     0.875000000000     0.255025000000     0          
T        Si     0.317000000000     0.875000000000     0.314050000000     0          
O        O      0.297400000000     0.625000000000     0.494975000000     0          
T        Si     0.317000000000     0.625000000000     0.435950000000     0          
O        O      0.452600000000     0.875000000000     0.369975000000     0          
T        Si     0.433000000000     0.875000000000     0.310950000000     0          
O        O      0.250000000000     0.750000000000     0.375000000000     0          
O        O      0.297400000000     0.827600000000     0.343750000000     0          
O        O      0.250000000000     0.827600000000     0.432475000000     0          
T        Si     0.250000000000     0.808000000000     0.373450000000     0          
O        O      0.297400000000     0.672400000000     0.406250000000     0          
O        O      0.000000000000     0.750000000000     0.250000000000     0          
O        O      0.452600000000     0.672400000000     0.468750000000     0          
O        O      0.000000000000     0.672400000000     0.307475000000     0          
T        Si     0.000000000000     0.692000000000     0.498450000000     0          
O        O      0.452600000000     0.827600000000     0.281250000000     0          
O        O      0.250000000000     0.672400000000     0.317525000000     0          
T        Si     0.250000000000     0.692000000000     0.376550000000     0          
O        O      0.000000000000     0.827600000000     0.442525000000     0          
T        Si     0.000000000000     0.808000000000     0.251550000000     0          
O        O      0.202600000000     0.672400000000     0.406250000000     0          
O        O      0.202600000000     0.827600000000     0.343750000000     0          
O        O      0.047400000000     0.827600000000     0.281250000000     0          
O        O      0.047400000000     0.672400000000     0.468750000000     0          
O        O      0.000000000000     0.500000000000     0.500000000000     0          
O        O      0.047400000000     0.577600000000     0.718750000000     0          
O        O      0.000000000000     0.577600000000     0.557475000000     0          
T        Si     0.000000000000     0.558000000000     0.748450000000     0          
T        Si     0.000000000000     0.625000000000     0.593750000000     0          
O        O      0.125000000000     0.875000000000     0.562500000000     0          
O        O      0.047400000000     0.922400000000     0.531250000000     0          
O        O      0.047400000000     0.875000000000     0.619975000000     0          
T        Si     0.067000000000     0.875000000000     0.560950000000     0          
T        Si     0.000000000000     0.875000000000     0.656250000000     0          
O        O      0.250000000000     0.500000000000     0.625000000000     0          
O        O      0.202600000000     0.922400000000     0.593750000000     0          
O        O      0.250000000000     0.922400000000     0.682475000000     0          
T        Si     0.250000000000     0.942000000000     0.623450000000     0          
T        Si     0.250000000000     0.875000000000     0.718750000000     0          
O        O      0.125000000000     0.625000000000     0.687500000000     0          
O        O      0.202600000000     0.577600000000     0.656250000000     0          
O        O      0.202600000000     0.625000000000     0.744975000000     0          
T        Si     0.183000000000     0.625000000000     0.685950000000     0          
T        Si     0.250000000000     0.625000000000     0.531250000000     0          
O        O      0.000000000000     0.922400000000     0.692525000000     0          
T        Si     0.000000000000     0.942000000000     0.501550000000     0          
O        O      0.202600000000     0.875000000000     0.505025000000     0          
T        Si     0.183000000000     0.875000000000     0.564050000000     0          
O        O      0.250000000000     0.577600000000     0.567525000000     0          
T        Si     0.250000000000     0.558000000000     0.626550000000     0          
O        O      0.047400000000     0.625000000000     0.630025000000     0          
T        Si     0.067000000000     0.625000000000     0.689050000000     0          
O        O      0.452600000000     0.922400000000     0.531250000000     0          
O        O      0.375000000000     0.625000000000     0.687500000000     0          
O        O      0.452600000000     0.577600000000     0.718750000000     0          
O        O      0.452600000000     0.625000000000     0.630025000000     0          
T        Si     0.433000000000     0.625000000000     0.689050000000     0          
O        O      0.297400000000     0.577600000000     0.656250000000     0          
O        O      0.375000000000     0.875000000000     0.562500000000     0          
O        O      0.297400000000     0.922400000000     0.593750000000     0          
O        O      0.297400000000     0.875000000000     0.505025000000     0          
T        Si     0.317000000000     0.875000000000     0.564050000000     0          
O        O      0.297400000000     0.625000000000     0.744975000000     0          
T        Si     0.317000000000     0.625000000000     0.685950000000     0          
O        O      0.452600000000     0.875000000000     0.619975000000     0          
T        Si     0.433000000000     0.875000000000     0.560950000000     0          
O        O      0.250000000000     0.750000000000     0.625000000000     0          
O        O      0.297400000000     0.827600000000     0.593750000000     0          
O        O      0.250000000000     0.827600000000     0.682475000000     0          
T        Si     0.250000000000     0.808000000000     0.623450000000     0          
O        O      0.297400000000     0.672400000000     0.656250000000     0          
O        O      0.000000000000     0.750000000000     0.500000000000     0          
O        O      0.452600000000     0.672400000000     0.718750000000     0          
O        O      0.000000000000     0.672400000000     0.557475000000     0          
T        Si     0.000000000000     0.692000000000     0.748450000000     0          
O        O      0.452600000000     0.827600000000     0.531250000000     0          
O        O      0.250000000000     0.672400000000     0.567525000000     0          
T        Si     0.250000000000     0.692000000000     0.626550000000     0          
O        O      0.000000000000     0.827600000000     0.692525000000     0          
T        Si     0.000000000000     0.808000000000     0.501550000000     0          
O        O      0.202600000000     0.672400000000     0.656250000000     0          
O        O      0.202600000000     0.827600000000     0.593750000000     0          
O        O      0.047400000000     0.827600000000     0.531250000000     0          
O        O      0.047400000000     0.672400000000     0.718750000000     0          
O        O      0.000000000000     0.500000000000     0.750000000000     0          
O        O      0.047400000000     0.577600000000     0.968750000000     0          
O        O      0.000000000000     0.577600000000     0.807475000000     0          
T        Si     0.000000000000     0.558000000000     0.998450000000     0          
T        Si     0.000000000000     0.625000000000     0.843750000000     0          
O        O      0.125000000000     0.875000000000     0.812500000000     0          
O        O      0.047400000000     0.922400000000     0.781250000000     0          
O        O      0.047400000000     0.875000000000     0.869975000000     0          
T        Si     0.067000000000     0.875000000000     0.810950000000     0          
T        Si     0.000000000000     0.875000000000     0.906250000000     0          
O        O      0.250000000000     0.500000000000     0.875000000000     0          
O        O      0.202600000000     0.922400000000     0.843750000000     0          
O        O      0.250000000000     0.922400000000     0.932475000000     0          
T        Si     0.250000000000     0.942000000000     0.873450000000     0          
T        Si     0.250000000000     0.875000000000     0.968750000000     0          
O        O      0.125000000000     0.625000000000     0.937500000000     0          
O        O      0.202600000000     0.577600000000     0.906250000000     0          
O        O      0.202600000000     0.625000000000     0.994975000000     0          
T        Si     0.183000000000     0.625000000000     0.935950000000     0          
T        Si     0.250000000000     0.625000000000     0.781250000000     0          
O        O      0.000000000000     0.922400000000     0.942525000000     0          
T        Si     0.000000000000     0.942000000000     0.751550000000     0          
O        O      0.202600000000     0.875000000000     0.755025000000     0          
T        Si     0.183000000000     0.875000000000     0.814050000000     0          
O        O      0.250000000000     0.577600000000     0.817525000000     0          
T        Si     0.250000000000     0.558000000000     0.876550000000     0          
O        O      0.047400000000     0.625000000000     0.880025000000     0          
T        Si     0.067000000000     0.625000000000     0.939050000000     0          
O        O      0.452600000000     0.922400000000     0.781250000000     0          
O        O      0.375000000000     0.625000000000     0.937500000000     0          
O        O      0.452600000000     0.577600000000     0.968750000000     0          
O        O      0.452600000000     0.625000000000     0.880025000000     0          
T        Si     0.433000000000     0.625000000000     0.939050000000     0          
O        O      0.297400000000     0.577600000000     0.906250000000     0          
O        O      0.375000000000     0.875000000000     0.812500000000     0          
O        O      0.297400000000     0.922400000000     0.843750000000     0          
O        O      0.297400000000     0.875000000000     0.755025000000     0          
T        Si     0.317000000000     0.875000000000     0.814050000000     0          
O        O      0.297400000000     0.625000000000     0.994975000000     0          
T        Si     0.317000000000     0.625000000000     0.935950000000     0          
O        O      0.452600000000     0.875000000000     0.869975000000     0          
T        Si     0.433000000000     0.875000000000     0.810950000000     0          
O        O      0.250000000000     0.750000000000     0.875000000000     0          
O        O      0.297400000000     0.827600000000     0.843750000000     0          
O        O      0.250000000000     0.827600000000     0.932475000000     0          
T        Si     0.250000000000     0.808000000000     0.873450000000     0          
O        O      0.297400000000     0.672400000000     0.906250000000     0          
O        O      0.000000000000     0.750000000000     0.750000000000     0          
O        O      0.452600000000     0.672400000000     0.968750000000     0          
O        O      0.000000000000     0.672400000000     0.807475000000     0          
T        Si     0.000000000000     0.692000000000     0.998450000000     0          
O        O      0.452600000000     0.827600000000     0.781250000000     0          
O        O      0.250000000000     0.672400000000     0.817525000000     0          
T        Si     0.250000000000     0.692000000000     0.876550000000     0          
O        O      0.000000000000     0.827600000000     0.942525000000     0          
T        Si     0.000000000000     0.808000000000     0.751550000000     0          
O        O      0.202600000000     0.672400000000     0.906250000000     0          
O        O      0.202600000000     0.827600000000     0.843750000000     0          
O        O      0.047400000000     0.827600000000     0.781250000000     0          
O        O      0.047400000000     0.672400000000     0.968750000000     0          
O        O      0.500000000000     0.000000000000     0.000000000000     0          
O        O      0.547400000000     0.077600000000     0.218750000000     0          
O        O      0.500000000000     0.077600000000     0.057475000000     0          
T        Si     0.500000000000     0.058000000000     0.248450000000     0          
T        Si     0.500000000000     0.125000000000     0.093750000000     0          
O        O      0.625000000000     0.375000000000     0.062500000000     0          
O        O      0.547400000000     0.422400000000     0.031250000000     0          
O        O      0.547400000000     0.375000000000     0.119975000000     0          
T        Si     0.567000000000     0.375000000000     0.060950000000     0          
T        Si     0.500000000000     0.375000000000     0.156250000000     0          
O        O      0.750000000000     0.000000000000     0.125000000000     0          
O        O      0.702600000000     0.422400000000     0.093750000000     0          
O        O      0.750000000000     0.422400000000     0.182475000000     0          
T        Si     0.750000000000     0.442000000000     0.123450000000     0          
T        Si     0.750000000000     0.375000000000     0.218750000000     0          
O        O      0.625000000000     0.125000000000     0.187500000000     0          
O        O      0.702600000000     0.077600000000     0.156250000000     0          
O        O      0.702600000000     0.125000000000     0.244975000000     0          
T        Si     0.683000000000     0.125000000000     0.185950000000     0          
T        Si     0.750000000000     0.125000000000     0.031250000000     0          
O        O      0.500000000000     0.422400000000     0.192525000000     0          
T        Si     0.500000000000     0.442000000000     0.001550000000     0          
O        O      0.702600000000     0.375000000000     0.005025000000     0          
T        Si     0.683000000000     0.375000000000     0.064050000000     0          
O        O      0.750000000000     0.077600000000     0.067525000000     0          
T        Si     0.750000000000     0.058000000000     0.126550000000     0          
O        O      0.547400000000     0.125000000000     0.130025000000     0          
T        Si     0.567000000000     0.125000000000     0.189050000000     0          
O        O      0.952600000000     0.422400000000     0.031250000000     0          
O        O      0.875000000000     0.125000000000     0.187500000000     0          
O        O      0.952600000000     0.077600000000     0.218750000000     0          
O        O      0.952600000000     0.125000000000     0.130025000000     0          
T        Si     0.933000000000     0.125000000000     0.189050000000     0          
O        O      0.797400000000     0.077600000000     0.156250000000     0          
O        O      0.875000000000     0.375000000000     0.062500000000     0          
O        O      0.797400000000     0.422400000000     0.093750000000     0          
O        O      0.797400000000     0.375000000000     0.005025000000     0          
T        Si     0.817000000000     0.375000000000     0.064050000000     0          
O        O      0.797400000000     0.125000000000     0.244975000000     0          
T        Si     0.817000000000     0.125000000000     0.185950000000     0          
O        O      0.952600000000     0.375000000000     0.119975000000     0          
T        Si     0.933000000000     0.375000000000     0.060950000000     0          
O        O      0.750000000000     0.250000000000     0.125000000000     0          
O        O      0.797400000000     0.327600000000     0.093750000000     0          
O        O      0.750000000000     0.327600000000     0.182475000000     0          
T        Si     0.750000000000     0.308000000000     0.123450000000     0          
O        O      0.797400000000     0.172400000000     0.156250000000     0          
O        O      0.500000000000     0.250000000000     0.000000000000     0          
O        O      0.952600000000     0.172400000000     0.218750000000     0          
O        O      0.500000000000     0.172400000000     0.057475000000     0          
T        Si     0.500000000000     0.192000000000     0.248450000000     0          
O        O      0.952600000000     0.327600000000     0.031250000000     0          
O        O      0.750000000000     0.172400000000     0.067525000000     0          
T        Si     0.750000000000     0.192000000000     0.126550000000     0          
O        O      0.500000000000     0.327600000000     0.192525000000     0          
T        Si     0.500000000000     0.308000000000     0.001550000000     0          
O        O      0.702600000000     0.172400000000     0.156250000000     0          
O        O      0.702600000000     0.327600000000     0.093750000000     0          
O        O      0.547400000000     0.327600000000     0.031250000000     0          
O        O      0.547400000000     0.172400000000     0.218750000000     0          
O        O      0.500000000000     0.000000000000     0.250000000000     0          
O        O      0.547400000000     0.077600000000     0.468750000000     0          
O        O      0.500000000000     0.077600000000     0.307475000000     0          
T        Si     0.500000000000     0.058000000000     0.498450000000     0          
T        Si     0.500000000000     0.125000000000     0.343750000000     0          
O        O      0.625000000000     0.375000000000     0.312500000000     0          
O        O      0.547400000000     0.422400000000     0.281250000000     0          
O        O      0.547400000000     0.375000000000     0.369975000000     0          
T        Si     0.567000000000     0.375000000000     0.310950000000     0          
T        Si     0.500000000000     0.375000000000     0.406250000000     0          
O        O      0.750000000000     0.000000000000     0.375000000000     0          
O        O      0.702600000000     0.422400000000     0.343750000000     0          
O        O      0.750000000000     0.422400000000     0.432475000000     0          
T        Si     0.750000000000     0.442000000000     0.373450000000     0          
T        Si     0.750000000000     0.375000000000     0.468750000000     0          
O        O      0.625000000000     0.125000000000     0.437500000000     0          
O        O      0.702600000000     0.077600000000     0.406250000000     0          
O        O      0.702600000000     0.125000000000     0.494975000000     0          
T        Si     0.683000000000     0.125000000000     0.435950000000     0          
T        Si     0.750000000000     0.125000000000     0.281250000000     0          
O        O      0.500000000000     0.422400000000     0.442525000000     0          
T        Si     0.500000000000     0.442000000000     0.251550000000     0          
O        O      0.702600000000     0.375000000000     0.255025000000     0          
T        Si     0.683000000000     0.375000000000     0.314050000000     0          
O        O      0.750000000000     0.077600000000     0.317525000000     0          
T        Si     0.750000000000     0.058000000000     0.376550000000     0          
O        O      0.547400000000     0.125000000000     0.380025000000     0          
T        Si     0.567000000000     0.125000000000     0.439050000000     0          
O        O      0.952600000000     0.422400000000     0.281250000000     0          
O        O      0.875000000000     0.125000000000     0.437500000000     0          
O        O      0.952600000000     0.077600000000     0.468750000000     0          
O        O      0.952600000000     0.125000000000     0.380025000000     0          
T        Si     0.933000000000     0.125000000000     0.439050000000     0          
O        O      0.797400000000     0.077600000000     0.406250000000     0          
O        O      0.875000000000     0.375000000000     0.312500000000     0          
O        O      0.797400000000     0.422400000000     0.343750000000     0          
O        O      0.797400000000     0.375000000000     0.255025000000     0          
T        Si     0.817000000000     0.375000000000     0.314050000000     0          
O        O      0.797400000000     0.125000000000     0.494975000000     0          
T        Si     0.817000000000     0.125000000000     0.435950000000     0          
O        O      0.952600000000     0.375000000000     0.369975000000     0          
T        Si     0.933000000000     0.375000000000     0.310950000000     0          
O        O      0.750000000000     0.250000000000     0.375000000000     0          
O        O      0.797400000000     0.327600000000     0.343750000000     0          
O        O      0.750000000000     0.327600000000     0.432475000000     0          
T        Si     0.750000000000     0.308000000000     0.373450000000     0          
O        O      0.797400000000     0.172400000000     0.406250000000     0          
O        O      0.500000000000     0.250000000000     0.250000000000     0          
O        O      0.952600000000     0.172400000000     0.468750000000     0          
O        O      0.500000000000     0.172400000000     0.307475000000     0          
T        Si     0.500000000000     0.192000000000     0.498450000000     0          
O        O      0.952600000000     0.327600000000     0.281250000000     0          
O        O      0.750000000000     0.172400000000     0.317525000000     0          
T        Si     0.750000000000     0.192000000000     0.376550000000     0          
O        O      0.500000000000     0.327600000000     0.442525000000     0          
T        Si     0.500000000000     0.308000000000     0.251550000000     0          
O        O      0.702600000000     0.172400000000     0.406250000000     0          
O        O      0.702600000000     0.327600000000     0.343750000000     0          
O        O      0.547400000000     0.327600000000     0.281250000000     0          
O        O      0.547400000000     0.172400000000     0.468750000000     0          
O        O      0.500000000000     0.000000000000     0.500000000000     0          
O        O      0.547400000000     0.077600000000     0.718750000000     0          
O        O      0.500000000000     0.077600000000     0.557475000000     0          
T        Si     0.500000000000     0.058000000000     0.748450000000     0          
T        Si     0.500000000000     0.125000000000     0.593750000000     0          
O        O      0.625000000000     0.375000000000     0.562500000000     0          
O        O      0.547400000000     0.422400000000     0.531250000000     0          
O        O      0.547400000000     0.375000000000     0.619975000000     0          
T        Si     0.567000000000     0.375000000000     0.560950000000     0          
T        Si     0.500000000000     0.375000000000     0.656250000000     0          
O        O      0.750000000000     0.000000000000     0.625000000000     0          
O        O      0.702600000000     0.422400000000     0.593750000000     0          
O        O      0.750000000000     0.422400000000     0.682475000000     0          
T        Si     0.750000000000     0.442000000000     0.623450000000     0          
T        Si     0.750000000000     0.375000000000     0.718750000000     0          
O        O      0.625000000000     0.125000000000     0.687500000000     0          
O        O      0.702600000000     0.077600000000     0.656250000000     0          
O        O      0.702600000000     0.125000000000     0.744975000000     0          
T        Si     0.683000000000     0.125000000000     0.685950000000     0          
T        Si     0.750000000000     0.125000000000     0.531250000000     0          
O        O      0.500000000000     0.422400000000     0.692525000000     0          
T        Si     0.500000000000     0.442000000000     0.501550000000     0          
O        O      0.702600000000     0.375000000000     0.505025000000     0          
T        Si     0.683000000000     0.375000000000     0.564050000000     0          
O        O      0.750000000000     0.077600000000     0.567525000000     0          
T        Si     0.750000000000     0.058000000000     0.626550000000     0          
O        O      0.547400000000     0.125000000000     0.630025000000     0          
T        Si     0.567000000000     0.125000000000     0.689050000000     0          
O        O      0.952600000000     0.422400000000     0.531250000000     0          
O        O      0.875000000000     0.125000000000     0.687500000000     0          
O        O      0.952600000000     0.077600000000     0.718750000000     0          
O        O      0.952600000000     0.125000000000     0.630025000000     0          
T        Si     0.933000000000     0.125000000000     0.689050000000     0          
O        O      0.797400000000     0.077600000000     0.656250000000     0          
O        O      0.875000000000     0.375000000000     0.562500000000     0          
O        O      0.797400000000     0.422400000000     0.593750000000     0          
O        O      0.797400000000     0.375000000000     0.505025000000     0          
T        Si     0.817000000000     0.375000000000     0.564050000000     0          
O        O      0.797400000000     0.125000000000     0.744975000000     0          
T        Si     0.817000000000     0.125000000000     0.685950000000     0          
O        O      0.952600000000     0.375000000000     0.619975000000     0          
T        Si     0.933000000000     0.375000000000     0.560950000000     0          
O        O      0.750000000000     0.250000000000     0.625000000000     0          
O        O      0.797400000000     0.327600000000     0.593750000000     0          
O        O      0.750000000000     0.327600000000     0.682475000000     0          
T        Si     0.750000000000     0.308000000000     0.623450000000     0          
O        O      0.797400000000     0.172400000000     0.656250000000     0          
O        O      0.500000000000     0.250000000000     0.500000000000     0          
O        O      0.952600000000     0.172400000000     0.718750000000     0          
O        O      0.500000000000     0.172400000000     0.557475000000     0          
T        Si     0.500000000000     0.192000000000     0.748450000000     0          
O        O      0.952600000000     0.327600000000     0.531250000000     0          
O        O      0.750000000000     0.172400000000     0.567525000000     0          
T        Si     0.750000000000     0.192000000000     0.626550000000     0          
O        O      0.500000000000     0.327600000000     0.692525000000     0          
T        Si     0.500000000000     0.308000000000     0.501550000000     0          
O        O      0.702600000000     0.172400000000     0.656250000000     0          
O        O      0.702600000000     0.327600000000     0.593750000000     0          
O        O      0.547400000000     0.327600000000     0.531250000000     0          
O        O      0.547400000000     0.172400000000     0.718750000000     0          
O        O      0.500000000000     0.000000000000     0.750000000000     0          
O        O      0.547400000000     0.077600000000     0.968750000000     0          
O        O      0.500000000000     0.077600000000     0.807475000000     0          
T        Si     0.500000000000     0.058000000000     0.998450000000     0          
T        Si     0.500000000000     0.125000000000     0.843750000000     0          
O        O      0.625000000000     0.375000000000     0.812500000000     0          
O        O      0.547400000000     0.422400000000     0.781250000000     0          
O        O      0.547400000000     0.375000000000     0.869975000000     0          
T        Si     0.567000000000     0.375000000000     0.810950000000     0          
T        Si     0.500000000000     0.375000000000     0.906250000000     0          
O        O      0.750000000000     0.000000000000     0.875000000000     0          
O        O      0.702600000000     0.422400000000     0.843750000000     0          
O        O      0.750000000000     0.422400000000     0.932475000000     0          
T        Si     0.750000000000     0.442000000000     0.873450000000     0          
T        Si     0.750000000000     0.375000000000     0.968750000000     0          
O        O      0.625000000000     0.125000000000     0.937500000000     0          
O        O      0.702600000000     0.077600000000     0.906250000000     0          
O        O      0.702600000000     0.125000000000     0.994975000000     0          
T        Si     0.683000000000     0.125000000000     0.935950000000     0          
T        Si     0.750000000000     0.125000000000     0.781250000000     0          
O        O      0.500000000000     0.422400000000     0.942525000000     0          
T        Si     0.500000000000     0.442000000000     0.751550000000     0          
O        O      0.702600000000     0.375000000000     0.755025000000     0          
T        Si     0.683000000000     0.375000000000     0.814050000000     0          
O        O      0.750000000000     0.077600000000     0.817525000000     0          
T        Si     0.750000000000     0.058000000000     0.876550000000     0          
O        O      0.547400000000     0.125000000000     0.880025000000     0          
T        Si     0.567000000000     0.125000000000     0.939050000000     0          
O        O      0.952600000000     0.422400000000     0.781250000000     0          
O        O      0.875000000000     0.125000000000     0.937500000000     0          
O        O      0.952600000000     0.077600000000     0.968750000000     0          
O        O      0.952600000000     0.125000000000     0.880025000000     0          
T        Si     0.933000000000     0.125000000000     0.939050000000     0          
O        O      0.797400000000     0.077600000000     0.906250000000     0          
O        O      0.875000000000     0.375000000000     0.812500000000     0          
O        O      0.797400000000     0.422400000000     0.843750000000     0          
O        O      0.797400000000     0.375000000000     0.755025000000     0          
T        Si     0.817000000000     0.375000000000     0.814050000000     0          
O        O      0.797400000000     0.125000000000     0.994975000000     0          
T        Si     0.817000000000     0.125000000000     0.935950000000     0          
O        O      0.952600000000     0.375000000000     0.869975000000     0          
T        Si     0.933000000000     0.375000000000     0.810950000000     0          
O        O      0.750000000000     0.250000000000     0.875000000000     0          
O        O      0.797400000000     0.327600000000     0.843750000000     0          
O        O      0.750000000000     0.327600000000     0.932475000000     0          
T        Si     0.750000000000     0.308000000000     0.873450000000     0          
O        O      0.797400000000     0.172400000000     0.906250000000     0          
O        O      0.500000000000     0.250000000000     0.750000000000     0          
O        O      0.952600000000     0.172400000000     0.968750000000     0          
O        O      0.500000000000     0.172400000000     0.807475000000     0          
T        Si     0.500000000000     0.192000000000     0.998450000000     0          
O        O      0.952600000000     0.327600000000     0.781250000000     0          
O        O      0.750000000000     0.172400000000     0.817525000000     0          
T        Si     0.750000000000     0.192000000000     0.876550000000     0          
O        O      0.500000000000     0.327600000000     0.942525000000     0          
T        Si     0.500000000000     0.308000000000     0.751550000000     0          
O        O      0.702600000000     0.172400000000     0.906250000000     0          
O        O      0.702600000000     0.327600000000     0.843750000000     0          
O        O      0.547400000000     0.327600000000     0.781250000000     0          
O        O      0.547400000000     0.172400000000     0.968750000000     0          
O        O      0.500000000000     0.500000000000     0.000000000000     0          
O        O      0.547400000000     0.577600000000     0.218750000000     0          
O        O      0.500000000000     0.577600000000     0.057475000000     0          
T        Si     0.500000000000     0.558000000000     0.248450000000     0          
T        Si     0.500000000000     0.625000000000     0.093750000000     0          
O        O      0.625000000000     0.875000000000     0.062500000000     0          
O        O      0.547400000000     0.922400000000     0.031250000000     0          
O        O      0.547400000000     0.875000000000     0.119975000000     0          
T        Si     0.567000000000     0.875000000000     0.060950000000     0          
T        Si     0.500000000000     0.875000000000     0.156250000000     0          
O        O      0.750000000000     0.500000000000     0.125000000000     0          
O        O      0.702600000000     0.922400000000     0.093750000000     0          
O        O      0.750000000000     0.922400000000     0.182475000000     0          
T        Si     0.750000000000     0.942000000000     0.123450000000     0          
T        Si     0.750000000000     0.875000000000     0.218750000000     0          
O        O      0.625000000000     0.625000000000     0.187500000000     0          
O        O      0.702600000000     0.577600000000     0.156250000000     0          
O        O      0.702600000000     0.625000000000     0.244975000000     0          
T        Si     0.683000000000     0.625000000000     0.185950000000     0          
T        Si     0.750000000000     0.625000000000     0.031250000000     0          
O        O      0.500000000000     0.922400000000     0.192525000000     0          
T        Si     0.500000000000     0.942000000000     0.001550000000     0          
O        O      0.702600000000     0.875000000000     0.005025000000     0          
T        Si     0.683000000000     0.875000000000     0.064050000000     0          
O        O      0.750000000000     0.577600000000     0.067525000000     0          
T        Si     0.750000000000     0.558000000000     0.126550000000     0          
O        O      0.547400000000     0.625000000000     0.130025000000     0          
T        Si     0.567000000000     0.625000000000     0.189050000000     0          
O        O      0.952600000000     0.922400000000     0.031250000000     0          
O        O      0.875000000000     0.625000000000     0.187500000000     0          
O        O      0.952600000000     0.577600000000     0.218750000000     0          
O        O      0.952600000000     0.625000000000     0.130025000000     0          
T        Si     0.933000000000     0.625000000000     0.189050000000     0          
O        O      0.797400000000     0.577600000000     0.156250000000     0          
O        O      0.875000000000     0.875000000000     0.062500000000     0          
O        O      0.797400000000     0.922400000000     0.093750000000     0          
O        O      0.797400000000     0.875000000000     0.005025000000     0          
T        Si     0.817000000000     0.875000000000     0.064050000000     0          
O        O      0.797400000000     0.625000000000     0.244975000000     0          
T        Si     0.817000000000     0.625000000000     0.185950000000     0          
O        O      0.952600000000     0.875000000000     0.119975000000     0          
T        Si     0.933000000000     0.875000000000     0.060950000000     0          
O        O      0.750000000000     0.750000000000     0.125000000000     0          
O        O      0.797400000000     0.827600000000     0.093750000000     0          
O        O      0.750000000000     0.827600000000     0.182475000000     0          
T        Si     0.750000000000     0.808000000000     0.123450000000     0          
O        O      0.797400000000     0.672400000000     0.156250000000     0          
O        O      0.500000000000     0.750000000000     0.000000000000     0          
O        O      0.952600000000     0.672400000000     0.218750000000     0          
O        O      0.500000000000     0.672400000000     0.057475000000     0          
T        Si     0.500000000000     0.692000000000     0.248450000000     0          
O        O      0.952600000000     0.827600000000     0.031250000000     0          
O        O      0.750000000000     0.672400000000     0.067525000000     0          
T        Si     0.750000000000     0.692000000000     0.126550000000     0          
O        O      0.500000000000     0.827600000000     0.192525000000     0          
T        Si     0.500000000000     0.808000000000     0.001550000000     0          
O        O      0.702600000000     0.672400000000     0.156250000000     0          
O        O      0.702600000000     0.827600000000     0.093750000000     0          
O        O      0.547400000000     0.827600000000     0.031250000000     0          
O        O      0.547400000000     0.672400000000     0.218750000000     0          
O        O      0.500000000000     0.500000000000     0.250000000000     0          
O        O      0.547400000000     0.577600000000     0.468750000000     0          
O        O      0.500000000000     0.577600000000     0.307475000000     0          
T        Si     0.500000000000     0.558000000000     0.498450000000     0          
T        Si     0.500000000000     0.625000000000     0.343750000000     0          
O        O      0.625000000000     0.875000000000     0.312500000000     0          
O        O      0.547400000000     0.922400000000     0.281250000000     0          
O        O      0.547400000000     0.875000000000     0.369975000000     0          
T        Si     0.567000000000     0.875000000000     0.310950000000     0          
T        Si     0.500000000000     0.875000000000     0.406250000000     0          
O        O      0.750000000000     0.500000000000     0.375000000000     0          
O        O      0.702600000000     0.922400000000     0.343750000000     0          
O        O      0.750000000000     0.922400000000     0.432475000000     0          
T        Si     0.750000000000     0.942000000000     0.373450000000     0          
T        Si     0.750000000000     0.875000000000     0.468750000000     0          
O        O      0.625000000000     0.625000000000     0.437500000000     0          
O        O      0.702600000000     0.577600000000     0.406250000000     0          
O        O      0.702600000000     0.625000000000     0.494975000000     0          
T        Si     0.683000000000     0.625000000000     0.435950000000     0          
T        Si     0.750000000000     0.625000000000     0.281250000000     0          
O        O      0.500000000000     0.922400000000     0.442525000000     0          
T        Si     0.500000000000     0.942000000000     0.251550000000     0          
O        O      0.702600000000     0.875000000000     0.255025000000     0          
T        Si     0.683000000000     0.875000000000     0.314050000000     0          
O        O      0.750000000000     0.577600000000     0.317525000000     0          
T        Si     0.750000000000     0.558000000000     0.376550000000     0          
O        O      0.547400000000     0.625000000000     0.380025000000     0          
T        Si     0.567000000000     0.625000000000     0.439050000000     0          
O        O      0.952600000000     0.922400000000     0.281250000000     0          
O        O      0.875000000000     0.625000000000     0.437500000000     0          
O        O      0.952600000000     0.577600000000     0.468750000000     0          
O        O      0.952600000000     0.625000000000     0.380025000000     0          
T        Si     0.933000000000     0.625000000000     0.439050000000     0          
O        O      0.797400000000     0.577600000000     0.406250000000     0          
O        O      0.875000000000     0.875000000000     0.312500000000     0          
O        O      0.797400000000     0.922400000000     0.343750000000     0          
O        O      0.797400000000     0.875000000000     0.255025000000     0          
T        Si     0.817000000000     0.875000000000     0.314050000000     0          
O        O      0.797400000000     0.625000000000     0.494975000000     0          
T        Si     0.817000000000     0.625000000000     0.435950000000     0          
O        O      0.952600000000     0.875000000000     0.369975000000     0          
T        Si     0.933000000000     0.875000000000     0.310950000000     0          
O        O      0.750000000000     0.750000000000     0.375000000000     0          
O        O      0.797400000000     0.827600000000     0.343750000000     0          
O        O      0.750000000000     0.827600000000     0.432475000000     0          
T        Si     0.750000000000     0.808000000000     0.373450000000     0          
O        O      0.797400000000     0.672400000000     0.406250000000     0          
O        O      0.500000000000     0.750000000000     0.250000000000     0          
O        O      0.952600000000     0.672400000000     0.468750000000     0          
O        O      0.500000000000     0.672400000000     0.307475000000     0          
T        Si     0.500000000000     0.692000000000     0.498450000000     0          
O        O      0.952600000000     0.827600000000     0.281250000000     0          
O        O      0.750000000000     0.672400000000     0.317525000000     0          
T        Si     0.750000000000     0.692000000000     0.376550000000     0          
O        O      0.500000000000     0.827600000000     0.442525000000     0          
T        Si     0.500000000000     0.808000000000     0.251550000000     0          
O        O      0.702600000000     0.672400000000     0.406250000000     0          
O        O      0.702600000000     0.827600000000     0.343750000000     0          
O        O      0.547400000000     0.827600000000     0.281250000000     0          
O        O      0.547400000000     0.672400000000     0.468750000000     0          
O        O      0.500000000000     0.500000000000     0.500000000000     0          
O        O      0.547400000000     0.577600000000     0.718750000000     0          
O        O      0.500000000000     0.577600000000     0.557475000000     0          
T        Si     0.500000000000     0.558000000000     0.748450000000     0          
T        Si     0.500000000000     0.625000000000     0.593750000000     0          
O        O      0.625000000000     0.875000000000     0.562500000000     0          
O        O      0.547400000000     0.922400000000     0.531250000000     0          
O        O      0.547400000000     0.875000000000     0.619975000000     0          
T        Si     0.567000000000     0.875000000000     0.560950000000     0          
T        Si     0.500000000000     0.875000000000     0.656250000000     0          
O        O      0.750000000000     0.500000000000     0.625000000000     0          
O        O      0.702600000000     0.922400000000     0.593750000000     0          
O        O      0.750000000000     0.922400000000     0.682475000000     0          
T        Si     0.750000000000     0.942000000000     0.623450000000     0          
T        Si     0.750000000000     0.875000000000     0.718750000000     0          
O        O      0.625000000000     0.625000000000     0.687500000000     0          
O        O      0.702600000000     0.577600000000     0.656250000000     0          
O        O      0.702600000000     0.625000000000     0.744975000000     0          
T        Si     0.683000000000     0.625000000000     0.685950000000     0          
T        Si     0.750000000000     0.625000000000     0.531250000000     0          
O        O      0.500000000000     0.922400000000     0.692525000000     0          
T        Si     0.500000000000     0.942000000000     0.501550000000     0          
O        O      0.702600000000     0.875000000000     0.505025000000     0          
T        Si     0.683000000000     0.875000000000     0.564050000000     0          
O        O      0.750000000000     0.577600000000     0.567525000000     0          
T        Si     0.750000000000     0.558000000000     0.626550000000     0          
O        O      0.547400000000     0.625000000000     0.630025000000     0          
T        Si     0.567000000000     0.625000000000     0.689050000000     0          
O        O      0.952600000000     0.922400000000     0.531250000000     0          
O        O      0.875000000000     0.625000000000     0.687500000000     0          
O        O      0.952600000000     0.577600000000     0.718750000000     0          
O        O      0.952600000000     0.625000000000     0.630025000000     0          
T        Si     0.933000000000     0.625000000000     0.689050000000     0          
O        O      0.797400000000     0.577600000000     0.656250000000     0          
O        O      0.875000000000     0.875000000000     0.562500000000     0          
O        O      0.797400000000     0.922400000000     0.593750000000     0          
O        O      0.797400000000     0.875000000000     0.505025000000     0          
T        Si     0.817000000000     0.875000000000     0.564050000000     0          
O        O      0.797400000000     0.625000000000     0.744975000000     0          
T        Si     0.817000000000     0.625000000000     0.685950000000     0          
O        O      0.952600000000     0.875000000000     0.619975000000     0          
T        Si     0.933000000000     0.875000000000     0.560950000000     0          
O        O      0.750000000000     0.750000000000     0.625000000000     0          
O        O      0.797400000000     0.827600000000     0.593750000000     0          
O        O      0.750000000000     0.827600000000     0.682475000000     0          
T        Si     0.750000000000     0.808000000000     0.623450000000     0          
O        O      0.797400000000     0.672400000000     0.656250000000     0          
O        O      0.500000000000     0.750000000000     0.500000000000     0          
O        O      0.952600000000     0.672400000000     0.718750000000     0          
O        O      0.500000000000     0.672400000000     0.557475000000     0          
T        Si     0.500000000000     0.692000000000     0.748450000000     0          
O        O      0.952600000000     0.827600000000     0.531250000000     0          
O        O      0.750000000000     0.672400000000     0.567525000000     0          
T        Si     0.750000000000     0.692000000000     0.626550000000     0          
O        O      0.500000000000     0.827600000000     0.692525000000     0          
T        Si     0.500000000000     0.808000000000     0.501550000000     0          
O        O      0.702600000000     0.672400000000     0.656250000000     0          
O        O      0.702600000000     0.827600000000     0.593750000000     0          
O        O      0.547400000000     0.827600000000     0.531250000000     0          
O        O      0.547400000000     0.672400000000     0.718750000000     0          
O        O      0.500000000000     0.500000000000     0.750000000000     0          
O        O      0.547400000000     0.577600000000     0.968750000000     0          
O        O      0.500000000000     0.577600000000     0.807475000000     0          
T        Si     0.500000000000     0.558000000000     0.998450000000     0          
T        Si     0.500000000000     0.625000000000     0.843750000000     0          
O        O      0.625000000000     0.875000000000     0.812500000000     0          
O        O      0.547400000000     0.922400000000     0.781250000000     0          
O        O      0.547400000000     0.875000000000     0.869975000000     0          
T        Si     0.567000000000     0.875000000000     0.810950000000     0          
T        Si     0.500000000000     0.875000000000     0.906250000000     0          
O        O      0.750000000000     0.500000000000     0.875000000000     0          
O        O      0.702600000000     0.922400000000     0.843750000000     0          
O        O      0.750000000000     0.922400000000     0.932475000000     0          
T        Si     0.750000000000     0.942000000000     0.873450000000     0          
T        Si     0.750000000000     0.875000000000     0.968750000000     0          
O        O      0.625000000000     0.625000000000     0.937500000000     0          
O        O      0.702600000000     0.577600000000     0.906250000000     0          
O        O      0.702600000000     0.625000000000     0.994975000000     0          
T        Si     0.683000000000     0.625000000000     0.935950000000     0          
T        Si     0.750000000000     0.625000000000     0.781250000000     0          
O        O      0.500000000000     0.922400000000     0.942525000000     0          
T        Si     0.500000000000     0.942000000000     0.751550000000     0          
O        O      0.702600000000     0.875000000000     0.755025000000     0          
T        Si     0.683000000000     0.875000000000     0.814050000000     0          
O        O      0.750000000000     0.577600000000     0.817525000000     0          
T        Si     0.750000000000     0.558000000000     0.876550000000     0          
O        O      0.547400000000     0.625000000000     0.880025000000     0          
T        Si     0.567000000000     0.625000000000     0.939050000000     0          
O        O      0.952600000000     0.922400000000     0.781250000000     0          
O        O      0.875000000000     0.625000000000     0.937500000000     0          
O        O      0.952600000000     0.577600000000     0.968750000000     0          
O        O      0.952600000000     0.625000000000     0.880025000000     0          
T        Si     0.933000000000     0.625000000000     0.939050000000     0          
O        O      0.797400000000     0.577600000000     0.906250000000     0          
O        O      0.875000000000     0.875000000000     0.812500000000     0          
O        O      0.797400000000     0.922400000000     0.843750000000     0          
O        O      0.797400000000     0.875000000000     0.755025000000     0          
T        Si     0.817000000000     0.875000000000     0.814050000000     0          
O        O      0.797400000000     0.625000000000     0.994975000000     0          
T        Si     0.817000000000     0.625000000000     0.935950000000     0          
O        O      0.952600000000     0.875000000000     0.869975000000     0          
T        Si     0.933000000000     0.875000000000     0.810950000000     0          
O        O      0.750000000000     0.750000000000     0.875000000000     0          
O        O      0.797400000000     0.827600000000     0.843750000000     0          
O        O      0.750000000000     0.827600000000     0.932475000000     0          
T        Si     0.750000000000     0.808000000000     0.873450000000     0          
O        O      0.797400000000     0.672400000000     0.906250000000     0          
O        O      0.500000000000     0.750000000000     0.750000000000     0          
O        O      0.952600000000     0.672400000000     0.968750000000     0          
O        O      0.500000000000     0.672400000000     0.807475000000     0          
T        Si     0.500000000000     0.692000000000     0.998450000000     0          
O        O      0.952600000000     0.827600000000     0.781250000000     0          
O        O      0.750000000000     0.672400000000     0.817525000000     0          
T        Si     0.750000000000     0.692000000000     0.876550000000     0          
O        O      0.500000000000     0.827600000000     0.942525000000     0          
T        Si     0.500000000000     0.808000000000     0.751550000000     0          
O        O      0.702600000000     0.672400000000     0.906250000000     0          
O        O      0.702600000000     0.827600000000     0.843750000000     0          
O        O      0.547400000000     0.827600000000     0.781250000000     0          
O        O      0.547400000000     0.672400000000     0.968750000000     0          


