data_zeolite

_audit_creation_method RASPA-1.0
_audit_creation_date 2021-1-29
_audit_author_name ''

_cell_length_a    26.895
_cell_length_b    26.895
_cell_length_c    26.895
_cell_angle_alpha 90
_cell_angle_beta  90
_cell_angle_gamma 90
_cell_volume      19454.3

_symmetry_cell_setting          cubic
_symmetry_space_group_name_Hall 'P 1'
_symmetry_space_group_name_H-M  'P 1'
_symmetry_Int_Tables_number     1

_symmetry_equiv_pos_as_xyz 'x,y,z'

loop_
_atom_site_label
_atom_site_type_symbol
_atom_site_fract_x
_atom_site_fract_y
_atom_site_fract_z
_atom_site_charge
O        O      0.048900000000     0.166666666667     0.284433333333     0          
T        Si     0.083333333333     0.166666666667     0.000000000000     0          
O        O      0.166666666667     0.048900000000     0.284433333333     0          
T        Si     0.166666666667     0.083333333333     0.000000000000     0          
O        O      0.284433333333     0.166666666667     0.284433333333     0          
T        Si     0.250000000000     0.166666666667     0.000000000000     0          
O        O      0.166666666667     0.284433333333     0.284433333333     0          
T        Si     0.166666666667     0.250000000000     0.000000000000     0          
O        O      0.048900000000     0.166666666667     0.048900000000     0          
O        O      0.166666666667     0.048900000000     0.048900000000     0          
O        O      0.284433333333     0.166666666667     0.048900000000     0          
O        O      0.166666666667     0.284433333333     0.048900000000     0          
O        O      0.284433333333     0.048900000000     0.166666666667     0          
T        Si     0.000000000000     0.083333333333     0.166666666667     0          
O        O      0.284433333333     0.284433333333     0.166666666667     0          
T        Si     0.250000000000     0.000000000000     0.166666666667     0          
O        O      0.048900000000     0.284433333333     0.166666666667     0          
T        Si     0.000000000000     0.250000000000     0.166666666667     0          
O        O      0.048900000000     0.048900000000     0.166666666667     0          
T        Si     0.083333333333     0.000000000000     0.166666666667     0          
T        Si     0.166666666667     0.000000000000     0.083333333333     0          
T        Si     0.166666666667     0.000000000000     0.250000000000     0          
T        Si     0.000000000000     0.166666666667     0.250000000000     0          
T        Si     0.000000000000     0.166666666667     0.083333333333     0          
O        O      0.215566666667     0.000000000000     0.117766666667     0          
O        O      0.000000000000     0.215566666667     0.117766666667     0          
O        O      0.117766666667     0.000000000000     0.117766666667     0          
O        O      0.000000000000     0.117766666667     0.117766666667     0          
O        O      0.215566666667     0.000000000000     0.215566666667     0          
O        O      0.000000000000     0.215566666667     0.215566666667     0          
O        O      0.117766666667     0.000000000000     0.215566666667     0          
O        O      0.000000000000     0.117766666667     0.215566666667     0          
O        O      0.117766666667     0.215566666667     0.000000000000     0          
O        O      0.117766666667     0.117766666667     0.000000000000     0          
O        O      0.215566666667     0.117766666667     0.000000000000     0          
O        O      0.215566666667     0.215566666667     0.000000000000     0          
O        O      0.048900000000     0.166666666667     0.617766666667     0          
T        Si     0.083333333333     0.166666666667     0.333333333333     0          
O        O      0.166666666667     0.048900000000     0.617766666667     0          
T        Si     0.166666666667     0.083333333333     0.333333333333     0          
O        O      0.284433333333     0.166666666667     0.617766666667     0          
T        Si     0.250000000000     0.166666666667     0.333333333333     0          
O        O      0.166666666667     0.284433333333     0.617766666667     0          
T        Si     0.166666666667     0.250000000000     0.333333333333     0          
O        O      0.048900000000     0.166666666667     0.382233333333     0          
O        O      0.166666666667     0.048900000000     0.382233333333     0          
O        O      0.284433333333     0.166666666667     0.382233333333     0          
O        O      0.166666666667     0.284433333333     0.382233333333     0          
O        O      0.284433333333     0.048900000000     0.500000000000     0          
T        Si     0.000000000000     0.083333333333     0.500000000000     0          
O        O      0.284433333333     0.284433333333     0.500000000000     0          
T        Si     0.250000000000     0.000000000000     0.500000000000     0          
O        O      0.048900000000     0.284433333333     0.500000000000     0          
T        Si     0.000000000000     0.250000000000     0.500000000000     0          
O        O      0.048900000000     0.048900000000     0.500000000000     0          
T        Si     0.083333333333     0.000000000000     0.500000000000     0          
T        Si     0.166666666667     0.000000000000     0.416666666667     0          
T        Si     0.166666666667     0.000000000000     0.583333333333     0          
T        Si     0.000000000000     0.166666666667     0.583333333333     0          
T        Si     0.000000000000     0.166666666667     0.416666666667     0          
O        O      0.215566666667     0.000000000000     0.451100000000     0          
O        O      0.000000000000     0.215566666667     0.451100000000     0          
O        O      0.117766666667     0.000000000000     0.451100000000     0          
O        O      0.000000000000     0.117766666667     0.451100000000     0          
O        O      0.215566666667     0.000000000000     0.548900000000     0          
O        O      0.000000000000     0.215566666667     0.548900000000     0          
O        O      0.117766666667     0.000000000000     0.548900000000     0          
O        O      0.000000000000     0.117766666667     0.548900000000     0          
O        O      0.117766666667     0.215566666667     0.333333333333     0          
O        O      0.117766666667     0.117766666667     0.333333333333     0          
O        O      0.215566666667     0.117766666667     0.333333333333     0          
O        O      0.215566666667     0.215566666667     0.333333333333     0          
O        O      0.048900000000     0.166666666667     0.951100000000     0          
T        Si     0.083333333333     0.166666666667     0.666666666667     0          
O        O      0.166666666667     0.048900000000     0.951100000000     0          
T        Si     0.166666666667     0.083333333333     0.666666666667     0          
O        O      0.284433333333     0.166666666667     0.951100000000     0          
T        Si     0.250000000000     0.166666666667     0.666666666667     0          
O        O      0.166666666667     0.284433333333     0.951100000000     0          
T        Si     0.166666666667     0.250000000000     0.666666666667     0          
O        O      0.048900000000     0.166666666667     0.715566666667     0          
O        O      0.166666666667     0.048900000000     0.715566666667     0          
O        O      0.284433333333     0.166666666667     0.715566666667     0          
O        O      0.166666666667     0.284433333333     0.715566666667     0          
O        O      0.284433333333     0.048900000000     0.833333333333     0          
T        Si     0.000000000000     0.083333333333     0.833333333333     0          
O        O      0.284433333333     0.284433333333     0.833333333333     0          
T        Si     0.250000000000     0.000000000000     0.833333333333     0          
O        O      0.048900000000     0.284433333333     0.833333333333     0          
T        Si     0.000000000000     0.250000000000     0.833333333333     0          
O        O      0.048900000000     0.048900000000     0.833333333333     0          
T        Si     0.083333333333     0.000000000000     0.833333333333     0          
T        Si     0.166666666667     0.000000000000     0.750000000000     0          
T        Si     0.166666666667     0.000000000000     0.916666666667     0          
T        Si     0.000000000000     0.166666666667     0.916666666667     0          
T        Si     0.000000000000     0.166666666667     0.750000000000     0          
O        O      0.215566666667     0.000000000000     0.784433333333     0          
O        O      0.000000000000     0.215566666667     0.784433333333     0          
O        O      0.117766666667     0.000000000000     0.784433333333     0          
O        O      0.000000000000     0.117766666667     0.784433333333     0          
O        O      0.215566666667     0.000000000000     0.882233333333     0          
O        O      0.000000000000     0.215566666667     0.882233333333     0          
O        O      0.117766666667     0.000000000000     0.882233333333     0          
O        O      0.000000000000     0.117766666667     0.882233333333     0          
O        O      0.117766666667     0.215566666667     0.666666666667     0          
O        O      0.117766666667     0.117766666667     0.666666666667     0          
O        O      0.215566666667     0.117766666667     0.666666666667     0          
O        O      0.215566666667     0.215566666667     0.666666666667     0          
O        O      0.048900000000     0.500000000000     0.284433333333     0          
T        Si     0.083333333333     0.500000000000     0.000000000000     0          
O        O      0.166666666667     0.382233333333     0.284433333333     0          
T        Si     0.166666666667     0.416666666667     0.000000000000     0          
O        O      0.284433333333     0.500000000000     0.284433333333     0          
T        Si     0.250000000000     0.500000000000     0.000000000000     0          
O        O      0.166666666667     0.617766666667     0.284433333333     0          
T        Si     0.166666666667     0.583333333333     0.000000000000     0          
O        O      0.048900000000     0.500000000000     0.048900000000     0          
O        O      0.166666666667     0.382233333333     0.048900000000     0          
O        O      0.284433333333     0.500000000000     0.048900000000     0          
O        O      0.166666666667     0.617766666667     0.048900000000     0          
O        O      0.284433333333     0.382233333333     0.166666666667     0          
T        Si     0.000000000000     0.416666666667     0.166666666667     0          
O        O      0.284433333333     0.617766666667     0.166666666667     0          
T        Si     0.250000000000     0.333333333333     0.166666666667     0          
O        O      0.048900000000     0.617766666667     0.166666666667     0          
T        Si     0.000000000000     0.583333333333     0.166666666667     0          
O        O      0.048900000000     0.382233333333     0.166666666667     0          
T        Si     0.083333333333     0.333333333333     0.166666666667     0          
T        Si     0.166666666667     0.333333333333     0.083333333333     0          
T        Si     0.166666666667     0.333333333333     0.250000000000     0          
T        Si     0.000000000000     0.500000000000     0.250000000000     0          
T        Si     0.000000000000     0.500000000000     0.083333333333     0          
O        O      0.215566666667     0.333333333333     0.117766666667     0          
O        O      0.000000000000     0.548900000000     0.117766666667     0          
O        O      0.117766666667     0.333333333333     0.117766666667     0          
O        O      0.000000000000     0.451100000000     0.117766666667     0          
O        O      0.215566666667     0.333333333333     0.215566666667     0          
O        O      0.000000000000     0.548900000000     0.215566666667     0          
O        O      0.117766666667     0.333333333333     0.215566666667     0          
O        O      0.000000000000     0.451100000000     0.215566666667     0          
O        O      0.117766666667     0.548900000000     0.000000000000     0          
O        O      0.117766666667     0.451100000000     0.000000000000     0          
O        O      0.215566666667     0.451100000000     0.000000000000     0          
O        O      0.215566666667     0.548900000000     0.000000000000     0          
O        O      0.048900000000     0.500000000000     0.617766666667     0          
T        Si     0.083333333333     0.500000000000     0.333333333333     0          
O        O      0.166666666667     0.382233333333     0.617766666667     0          
T        Si     0.166666666667     0.416666666667     0.333333333333     0          
O        O      0.284433333333     0.500000000000     0.617766666667     0          
T        Si     0.250000000000     0.500000000000     0.333333333333     0          
O        O      0.166666666667     0.617766666667     0.617766666667     0          
T        Si     0.166666666667     0.583333333333     0.333333333333     0          
O        O      0.048900000000     0.500000000000     0.382233333333     0          
O        O      0.166666666667     0.382233333333     0.382233333333     0          
O        O      0.284433333333     0.500000000000     0.382233333333     0          
O        O      0.166666666667     0.617766666667     0.382233333333     0          
O        O      0.284433333333     0.382233333333     0.500000000000     0          
T        Si     0.000000000000     0.416666666667     0.500000000000     0          
O        O      0.284433333333     0.617766666667     0.500000000000     0          
T        Si     0.250000000000     0.333333333333     0.500000000000     0          
O        O      0.048900000000     0.617766666667     0.500000000000     0          
T        Si     0.000000000000     0.583333333333     0.500000000000     0          
O        O      0.048900000000     0.382233333333     0.500000000000     0          
T        Si     0.083333333333     0.333333333333     0.500000000000     0          
T        Si     0.166666666667     0.333333333333     0.416666666667     0          
T        Si     0.166666666667     0.333333333333     0.583333333333     0          
T        Si     0.000000000000     0.500000000000     0.583333333333     0          
T        Si     0.000000000000     0.500000000000     0.416666666667     0          
O        O      0.215566666667     0.333333333333     0.451100000000     0          
O        O      0.000000000000     0.548900000000     0.451100000000     0          
O        O      0.117766666667     0.333333333333     0.451100000000     0          
O        O      0.000000000000     0.451100000000     0.451100000000     0          
O        O      0.215566666667     0.333333333333     0.548900000000     0          
O        O      0.000000000000     0.548900000000     0.548900000000     0          
O        O      0.117766666667     0.333333333333     0.548900000000     0          
O        O      0.000000000000     0.451100000000     0.548900000000     0          
O        O      0.117766666667     0.548900000000     0.333333333333     0          
O        O      0.117766666667     0.451100000000     0.333333333333     0          
O        O      0.215566666667     0.451100000000     0.333333333333     0          
O        O      0.215566666667     0.548900000000     0.333333333333     0          
O        O      0.048900000000     0.500000000000     0.951100000000     0          
T        Si     0.083333333333     0.500000000000     0.666666666667     0          
O        O      0.166666666667     0.382233333333     0.951100000000     0          
T        Si     0.166666666667     0.416666666667     0.666666666667     0          
O        O      0.284433333333     0.500000000000     0.951100000000     0          
T        Si     0.250000000000     0.500000000000     0.666666666667     0          
O        O      0.166666666667     0.617766666667     0.951100000000     0          
T        Si     0.166666666667     0.583333333333     0.666666666667     0          
O        O      0.048900000000     0.500000000000     0.715566666667     0          
O        O      0.166666666667     0.382233333333     0.715566666667     0          
O        O      0.284433333333     0.500000000000     0.715566666667     0          
O        O      0.166666666667     0.617766666667     0.715566666667     0          
O        O      0.284433333333     0.382233333333     0.833333333333     0          
T        Si     0.000000000000     0.416666666667     0.833333333333     0          
O        O      0.284433333333     0.617766666667     0.833333333333     0          
T        Si     0.250000000000     0.333333333333     0.833333333333     0          
O        O      0.048900000000     0.617766666667     0.833333333333     0          
T        Si     0.000000000000     0.583333333333     0.833333333333     0          
O        O      0.048900000000     0.382233333333     0.833333333333     0          
T        Si     0.083333333333     0.333333333333     0.833333333333     0          
T        Si     0.166666666667     0.333333333333     0.750000000000     0          
T        Si     0.166666666667     0.333333333333     0.916666666667     0          
T        Si     0.000000000000     0.500000000000     0.916666666667     0          
T        Si     0.000000000000     0.500000000000     0.750000000000     0          
O        O      0.215566666667     0.333333333333     0.784433333333     0          
O        O      0.000000000000     0.548900000000     0.784433333333     0          
O        O      0.117766666667     0.333333333333     0.784433333333     0          
O        O      0.000000000000     0.451100000000     0.784433333333     0          
O        O      0.215566666667     0.333333333333     0.882233333333     0          
O        O      0.000000000000     0.548900000000     0.882233333333     0          
O        O      0.117766666667     0.333333333333     0.882233333333     0          
O        O      0.000000000000     0.451100000000     0.882233333333     0          
O        O      0.117766666667     0.548900000000     0.666666666667     0          
O        O      0.117766666667     0.451100000000     0.666666666667     0          
O        O      0.215566666667     0.451100000000     0.666666666667     0          
O        O      0.215566666667     0.548900000000     0.666666666667     0          
O        O      0.048900000000     0.833333333333     0.284433333333     0          
T        Si     0.083333333333     0.833333333333     0.000000000000     0          
O        O      0.166666666667     0.715566666667     0.284433333333     0          
T        Si     0.166666666667     0.750000000000     0.000000000000     0          
O        O      0.284433333333     0.833333333333     0.284433333333     0          
T        Si     0.250000000000     0.833333333333     0.000000000000     0          
O        O      0.166666666667     0.951100000000     0.284433333333     0          
T        Si     0.166666666667     0.916666666667     0.000000000000     0          
O        O      0.048900000000     0.833333333333     0.048900000000     0          
O        O      0.166666666667     0.715566666667     0.048900000000     0          
O        O      0.284433333333     0.833333333333     0.048900000000     0          
O        O      0.166666666667     0.951100000000     0.048900000000     0          
O        O      0.284433333333     0.715566666667     0.166666666667     0          
T        Si     0.000000000000     0.750000000000     0.166666666667     0          
O        O      0.284433333333     0.951100000000     0.166666666667     0          
T        Si     0.250000000000     0.666666666667     0.166666666667     0          
O        O      0.048900000000     0.951100000000     0.166666666667     0          
T        Si     0.000000000000     0.916666666667     0.166666666667     0          
O        O      0.048900000000     0.715566666667     0.166666666667     0          
T        Si     0.083333333333     0.666666666667     0.166666666667     0          
T        Si     0.166666666667     0.666666666667     0.083333333333     0          
T        Si     0.166666666667     0.666666666667     0.250000000000     0          
T        Si     0.000000000000     0.833333333333     0.250000000000     0          
T        Si     0.000000000000     0.833333333333     0.083333333333     0          
O        O      0.215566666667     0.666666666667     0.117766666667     0          
O        O      0.000000000000     0.882233333333     0.117766666667     0          
O        O      0.117766666667     0.666666666667     0.117766666667     0          
O        O      0.000000000000     0.784433333333     0.117766666667     0          
O        O      0.215566666667     0.666666666667     0.215566666667     0          
O        O      0.000000000000     0.882233333333     0.215566666667     0          
O        O      0.117766666667     0.666666666667     0.215566666667     0          
O        O      0.000000000000     0.784433333333     0.215566666667     0          
O        O      0.117766666667     0.882233333333     0.000000000000     0          
O        O      0.117766666667     0.784433333333     0.000000000000     0          
O        O      0.215566666667     0.784433333333     0.000000000000     0          
O        O      0.215566666667     0.882233333333     0.000000000000     0          
O        O      0.048900000000     0.833333333333     0.617766666667     0          
T        Si     0.083333333333     0.833333333333     0.333333333333     0          
O        O      0.166666666667     0.715566666667     0.617766666667     0          
T        Si     0.166666666667     0.750000000000     0.333333333333     0          
O        O      0.284433333333     0.833333333333     0.617766666667     0          
T        Si     0.250000000000     0.833333333333     0.333333333333     0          
O        O      0.166666666667     0.951100000000     0.617766666667     0          
T        Si     0.166666666667     0.916666666667     0.333333333333     0          
O        O      0.048900000000     0.833333333333     0.382233333333     0          
O        O      0.166666666667     0.715566666667     0.382233333333     0          
O        O      0.284433333333     0.833333333333     0.382233333333     0          
O        O      0.166666666667     0.951100000000     0.382233333333     0          
O        O      0.284433333333     0.715566666667     0.500000000000     0          
T        Si     0.000000000000     0.750000000000     0.500000000000     0          
O        O      0.284433333333     0.951100000000     0.500000000000     0          
T        Si     0.250000000000     0.666666666667     0.500000000000     0          
O        O      0.048900000000     0.951100000000     0.500000000000     0          
T        Si     0.000000000000     0.916666666667     0.500000000000     0          
O        O      0.048900000000     0.715566666667     0.500000000000     0          
T        Si     0.083333333333     0.666666666667     0.500000000000     0          
T        Si     0.166666666667     0.666666666667     0.416666666667     0          
T        Si     0.166666666667     0.666666666667     0.583333333333     0          
T        Si     0.000000000000     0.833333333333     0.583333333333     0          
T        Si     0.000000000000     0.833333333333     0.416666666667     0          
O        O      0.215566666667     0.666666666667     0.451100000000     0          
O        O      0.000000000000     0.882233333333     0.451100000000     0          
O        O      0.117766666667     0.666666666667     0.451100000000     0          
O        O      0.000000000000     0.784433333333     0.451100000000     0          
O        O      0.215566666667     0.666666666667     0.548900000000     0          
O        O      0.000000000000     0.882233333333     0.548900000000     0          
O        O      0.117766666667     0.666666666667     0.548900000000     0          
O        O      0.000000000000     0.784433333333     0.548900000000     0          
O        O      0.117766666667     0.882233333333     0.333333333333     0          
O        O      0.117766666667     0.784433333333     0.333333333333     0          
O        O      0.215566666667     0.784433333333     0.333333333333     0          
O        O      0.215566666667     0.882233333333     0.333333333333     0          
O        O      0.048900000000     0.833333333333     0.951100000000     0          
T        Si     0.083333333333     0.833333333333     0.666666666667     0          
O        O      0.166666666667     0.715566666667     0.951100000000     0          
T        Si     0.166666666667     0.750000000000     0.666666666667     0          
O        O      0.284433333333     0.833333333333     0.951100000000     0          
T        Si     0.250000000000     0.833333333333     0.666666666667     0          
O        O      0.166666666667     0.951100000000     0.951100000000     0          
T        Si     0.166666666667     0.916666666667     0.666666666667     0          
O        O      0.048900000000     0.833333333333     0.715566666667     0          
O        O      0.166666666667     0.715566666667     0.715566666667     0          
O        O      0.284433333333     0.833333333333     0.715566666667     0          
O        O      0.166666666667     0.951100000000     0.715566666667     0          
O        O      0.284433333333     0.715566666667     0.833333333333     0          
T        Si     0.000000000000     0.750000000000     0.833333333333     0          
O        O      0.284433333333     0.951100000000     0.833333333333     0          
T        Si     0.250000000000     0.666666666667     0.833333333333     0          
O        O      0.048900000000     0.951100000000     0.833333333333     0          
T        Si     0.000000000000     0.916666666667     0.833333333333     0          
O        O      0.048900000000     0.715566666667     0.833333333333     0          
T        Si     0.083333333333     0.666666666667     0.833333333333     0          
T        Si     0.166666666667     0.666666666667     0.750000000000     0          
T        Si     0.166666666667     0.666666666667     0.916666666667     0          
T        Si     0.000000000000     0.833333333333     0.916666666667     0          
T        Si     0.000000000000     0.833333333333     0.750000000000     0          
O        O      0.215566666667     0.666666666667     0.784433333333     0          
O        O      0.000000000000     0.882233333333     0.784433333333     0          
O        O      0.117766666667     0.666666666667     0.784433333333     0          
O        O      0.000000000000     0.784433333333     0.784433333333     0          
O        O      0.215566666667     0.666666666667     0.882233333333     0          
O        O      0.000000000000     0.882233333333     0.882233333333     0          
O        O      0.117766666667     0.666666666667     0.882233333333     0          
O        O      0.000000000000     0.784433333333     0.882233333333     0          
O        O      0.117766666667     0.882233333333     0.666666666667     0          
O        O      0.117766666667     0.784433333333     0.666666666667     0          
O        O      0.215566666667     0.784433333333     0.666666666667     0          
O        O      0.215566666667     0.882233333333     0.666666666667     0          
O        O      0.382233333333     0.166666666667     0.284433333333     0          
T        Si     0.416666666667     0.166666666667     0.000000000000     0          
O        O      0.500000000000     0.048900000000     0.284433333333     0          
T        Si     0.500000000000     0.083333333333     0.000000000000     0          
O        O      0.617766666667     0.166666666667     0.284433333333     0          
T        Si     0.583333333333     0.166666666667     0.000000000000     0          
O        O      0.500000000000     0.284433333333     0.284433333333     0          
T        Si     0.500000000000     0.250000000000     0.000000000000     0          
O        O      0.382233333333     0.166666666667     0.048900000000     0          
O        O      0.500000000000     0.048900000000     0.048900000000     0          
O        O      0.617766666667     0.166666666667     0.048900000000     0          
O        O      0.500000000000     0.284433333333     0.048900000000     0          
O        O      0.617766666667     0.048900000000     0.166666666667     0          
T        Si     0.333333333333     0.083333333333     0.166666666667     0          
O        O      0.617766666667     0.284433333333     0.166666666667     0          
T        Si     0.583333333333     0.000000000000     0.166666666667     0          
O        O      0.382233333333     0.284433333333     0.166666666667     0          
T        Si     0.333333333333     0.250000000000     0.166666666667     0          
O        O      0.382233333333     0.048900000000     0.166666666667     0          
T        Si     0.416666666667     0.000000000000     0.166666666667     0          
T        Si     0.500000000000     0.000000000000     0.083333333333     0          
T        Si     0.500000000000     0.000000000000     0.250000000000     0          
T        Si     0.333333333333     0.166666666667     0.250000000000     0          
T        Si     0.333333333333     0.166666666667     0.083333333333     0          
O        O      0.548900000000     0.000000000000     0.117766666667     0          
O        O      0.333333333333     0.215566666667     0.117766666667     0          
O        O      0.451100000000     0.000000000000     0.117766666667     0          
O        O      0.333333333333     0.117766666667     0.117766666667     0          
O        O      0.548900000000     0.000000000000     0.215566666667     0          
O        O      0.333333333333     0.215566666667     0.215566666667     0          
O        O      0.451100000000     0.000000000000     0.215566666667     0          
O        O      0.333333333333     0.117766666667     0.215566666667     0          
O        O      0.451100000000     0.215566666667     0.000000000000     0          
O        O      0.451100000000     0.117766666667     0.000000000000     0          
O        O      0.548900000000     0.117766666667     0.000000000000     0          
O        O      0.548900000000     0.215566666667     0.000000000000     0          
O        O      0.382233333333     0.166666666667     0.617766666667     0          
T        Si     0.416666666667     0.166666666667     0.333333333333     0          
O        O      0.500000000000     0.048900000000     0.617766666667     0          
T        Si     0.500000000000     0.083333333333     0.333333333333     0          
O        O      0.617766666667     0.166666666667     0.617766666667     0          
T        Si     0.583333333333     0.166666666667     0.333333333333     0          
O        O      0.500000000000     0.284433333333     0.617766666667     0          
T        Si     0.500000000000     0.250000000000     0.333333333333     0          
O        O      0.382233333333     0.166666666667     0.382233333333     0          
O        O      0.500000000000     0.048900000000     0.382233333333     0          
O        O      0.617766666667     0.166666666667     0.382233333333     0          
O        O      0.500000000000     0.284433333333     0.382233333333     0          
O        O      0.617766666667     0.048900000000     0.500000000000     0          
T        Si     0.333333333333     0.083333333333     0.500000000000     0          
O        O      0.617766666667     0.284433333333     0.500000000000     0          
T        Si     0.583333333333     0.000000000000     0.500000000000     0          
O        O      0.382233333333     0.284433333333     0.500000000000     0          
T        Si     0.333333333333     0.250000000000     0.500000000000     0          
O        O      0.382233333333     0.048900000000     0.500000000000     0          
T        Si     0.416666666667     0.000000000000     0.500000000000     0          
T        Si     0.500000000000     0.000000000000     0.416666666667     0          
T        Si     0.500000000000     0.000000000000     0.583333333333     0          
T        Si     0.333333333333     0.166666666667     0.583333333333     0          
T        Si     0.333333333333     0.166666666667     0.416666666667     0          
O        O      0.548900000000     0.000000000000     0.451100000000     0          
O        O      0.333333333333     0.215566666667     0.451100000000     0          
O        O      0.451100000000     0.000000000000     0.451100000000     0          
O        O      0.333333333333     0.117766666667     0.451100000000     0          
O        O      0.548900000000     0.000000000000     0.548900000000     0          
O        O      0.333333333333     0.215566666667     0.548900000000     0          
O        O      0.451100000000     0.000000000000     0.548900000000     0          
O        O      0.333333333333     0.117766666667     0.548900000000     0          
O        O      0.451100000000     0.215566666667     0.333333333333     0          
O        O      0.451100000000     0.117766666667     0.333333333333     0          
O        O      0.548900000000     0.117766666667     0.333333333333     0          
O        O      0.548900000000     0.215566666667     0.333333333333     0          
O        O      0.382233333333     0.166666666667     0.951100000000     0          
T        Si     0.416666666667     0.166666666667     0.666666666667     0          
O        O      0.500000000000     0.048900000000     0.951100000000     0          
T        Si     0.500000000000     0.083333333333     0.666666666667     0          
O        O      0.617766666667     0.166666666667     0.951100000000     0          
T        Si     0.583333333333     0.166666666667     0.666666666667     0          
O        O      0.500000000000     0.284433333333     0.951100000000     0          
T        Si     0.500000000000     0.250000000000     0.666666666667     0          
O        O      0.382233333333     0.166666666667     0.715566666667     0          
O        O      0.500000000000     0.048900000000     0.715566666667     0          
O        O      0.617766666667     0.166666666667     0.715566666667     0          
O        O      0.500000000000     0.284433333333     0.715566666667     0          
O        O      0.617766666667     0.048900000000     0.833333333333     0          
T        Si     0.333333333333     0.083333333333     0.833333333333     0          
O        O      0.617766666667     0.284433333333     0.833333333333     0          
T        Si     0.583333333333     0.000000000000     0.833333333333     0          
O        O      0.382233333333     0.284433333333     0.833333333333     0          
T        Si     0.333333333333     0.250000000000     0.833333333333     0          
O        O      0.382233333333     0.048900000000     0.833333333333     0          
T        Si     0.416666666667     0.000000000000     0.833333333333     0          
T        Si     0.500000000000     0.000000000000     0.750000000000     0          
T        Si     0.500000000000     0.000000000000     0.916666666667     0          
T        Si     0.333333333333     0.166666666667     0.916666666667     0          
T        Si     0.333333333333     0.166666666667     0.750000000000     0          
O        O      0.548900000000     0.000000000000     0.784433333333     0          
O        O      0.333333333333     0.215566666667     0.784433333333     0          
O        O      0.451100000000     0.000000000000     0.784433333333     0          
O        O      0.333333333333     0.117766666667     0.784433333333     0          
O        O      0.548900000000     0.000000000000     0.882233333333     0          
O        O      0.333333333333     0.215566666667     0.882233333333     0          
O        O      0.451100000000     0.000000000000     0.882233333333     0          
O        O      0.333333333333     0.117766666667     0.882233333333     0          
O        O      0.451100000000     0.215566666667     0.666666666667     0          
O        O      0.451100000000     0.117766666667     0.666666666667     0          
O        O      0.548900000000     0.117766666667     0.666666666667     0          
O        O      0.548900000000     0.215566666667     0.666666666667     0          
O        O      0.382233333333     0.500000000000     0.284433333333     0          
T        Si     0.416666666667     0.500000000000     0.000000000000     0          
O        O      0.500000000000     0.382233333333     0.284433333333     0          
T        Si     0.500000000000     0.416666666667     0.000000000000     0          
O        O      0.617766666667     0.500000000000     0.284433333333     0          
T        Si     0.583333333333     0.500000000000     0.000000000000     0          
O        O      0.500000000000     0.617766666667     0.284433333333     0          
T        Si     0.500000000000     0.583333333333     0.000000000000     0          
O        O      0.382233333333     0.500000000000     0.048900000000     0          
O        O      0.500000000000     0.382233333333     0.048900000000     0          
O        O      0.617766666667     0.500000000000     0.048900000000     0          
O        O      0.500000000000     0.617766666667     0.048900000000     0          
O        O      0.617766666667     0.382233333333     0.166666666667     0          
T        Si     0.333333333333     0.416666666667     0.166666666667     0          
O        O      0.617766666667     0.617766666667     0.166666666667     0          
T        Si     0.583333333333     0.333333333333     0.166666666667     0          
O        O      0.382233333333     0.617766666667     0.166666666667     0          
T        Si     0.333333333333     0.583333333333     0.166666666667     0          
O        O      0.382233333333     0.382233333333     0.166666666667     0          
T        Si     0.416666666667     0.333333333333     0.166666666667     0          
T        Si     0.500000000000     0.333333333333     0.083333333333     0          
T        Si     0.500000000000     0.333333333333     0.250000000000     0          
T        Si     0.333333333333     0.500000000000     0.250000000000     0          
T        Si     0.333333333333     0.500000000000     0.083333333333     0          
O        O      0.548900000000     0.333333333333     0.117766666667     0          
O        O      0.333333333333     0.548900000000     0.117766666667     0          
O        O      0.451100000000     0.333333333333     0.117766666667     0          
O        O      0.333333333333     0.451100000000     0.117766666667     0          
O        O      0.548900000000     0.333333333333     0.215566666667     0          
O        O      0.333333333333     0.548900000000     0.215566666667     0          
O        O      0.451100000000     0.333333333333     0.215566666667     0          
O        O      0.333333333333     0.451100000000     0.215566666667     0          
O        O      0.451100000000     0.548900000000     0.000000000000     0          
O        O      0.451100000000     0.451100000000     0.000000000000     0          
O        O      0.548900000000     0.451100000000     0.000000000000     0          
O        O      0.548900000000     0.548900000000     0.000000000000     0          
O        O      0.382233333333     0.500000000000     0.617766666667     0          
T        Si     0.416666666667     0.500000000000     0.333333333333     0          
O        O      0.500000000000     0.382233333333     0.617766666667     0          
T        Si     0.500000000000     0.416666666667     0.333333333333     0          
O        O      0.617766666667     0.500000000000     0.617766666667     0          
T        Si     0.583333333333     0.500000000000     0.333333333333     0          
O        O      0.500000000000     0.617766666667     0.617766666667     0          
T        Si     0.500000000000     0.583333333333     0.333333333333     0          
O        O      0.382233333333     0.500000000000     0.382233333333     0          
O        O      0.500000000000     0.382233333333     0.382233333333     0          
O        O      0.617766666667     0.500000000000     0.382233333333     0          
O        O      0.500000000000     0.617766666667     0.382233333333     0          
O        O      0.617766666667     0.382233333333     0.500000000000     0          
T        Si     0.333333333333     0.416666666667     0.500000000000     0          
O        O      0.617766666667     0.617766666667     0.500000000000     0          
T        Si     0.583333333333     0.333333333333     0.500000000000     0          
O        O      0.382233333333     0.617766666667     0.500000000000     0          
T        Si     0.333333333333     0.583333333333     0.500000000000     0          
O        O      0.382233333333     0.382233333333     0.500000000000     0          
T        Si     0.416666666667     0.333333333333     0.500000000000     0          
T        Si     0.500000000000     0.333333333333     0.416666666667     0          
T        Si     0.500000000000     0.333333333333     0.583333333333     0          
T        Si     0.333333333333     0.500000000000     0.583333333333     0          
T        Si     0.333333333333     0.500000000000     0.416666666667     0          
O        O      0.548900000000     0.333333333333     0.451100000000     0          
O        O      0.333333333333     0.548900000000     0.451100000000     0          
O        O      0.451100000000     0.333333333333     0.451100000000     0          
O        O      0.333333333333     0.451100000000     0.451100000000     0          
O        O      0.548900000000     0.333333333333     0.548900000000     0          
O        O      0.333333333333     0.548900000000     0.548900000000     0          
O        O      0.451100000000     0.333333333333     0.548900000000     0          
O        O      0.333333333333     0.451100000000     0.548900000000     0          
O        O      0.451100000000     0.548900000000     0.333333333333     0          
O        O      0.451100000000     0.451100000000     0.333333333333     0          
O        O      0.548900000000     0.451100000000     0.333333333333     0          
O        O      0.548900000000     0.548900000000     0.333333333333     0          
O        O      0.382233333333     0.500000000000     0.951100000000     0          
T        Si     0.416666666667     0.500000000000     0.666666666667     0          
O        O      0.500000000000     0.382233333333     0.951100000000     0          
T        Si     0.500000000000     0.416666666667     0.666666666667     0          
O        O      0.617766666667     0.500000000000     0.951100000000     0          
T        Si     0.583333333333     0.500000000000     0.666666666667     0          
O        O      0.500000000000     0.617766666667     0.951100000000     0          
T        Si     0.500000000000     0.583333333333     0.666666666667     0          
O        O      0.382233333333     0.500000000000     0.715566666667     0          
O        O      0.500000000000     0.382233333333     0.715566666667     0          
O        O      0.617766666667     0.500000000000     0.715566666667     0          
O        O      0.500000000000     0.617766666667     0.715566666667     0          
O        O      0.617766666667     0.382233333333     0.833333333333     0          
T        Si     0.333333333333     0.416666666667     0.833333333333     0          
O        O      0.617766666667     0.617766666667     0.833333333333     0          
T        Si     0.583333333333     0.333333333333     0.833333333333     0          
O        O      0.382233333333     0.617766666667     0.833333333333     0          
T        Si     0.333333333333     0.583333333333     0.833333333333     0          
O        O      0.382233333333     0.382233333333     0.833333333333     0          
T        Si     0.416666666667     0.333333333333     0.833333333333     0          
T        Si     0.500000000000     0.333333333333     0.750000000000     0          
T        Si     0.500000000000     0.333333333333     0.916666666667     0          
T        Si     0.333333333333     0.500000000000     0.916666666667     0          
T        Si     0.333333333333     0.500000000000     0.750000000000     0          
O        O      0.548900000000     0.333333333333     0.784433333333     0          
O        O      0.333333333333     0.548900000000     0.784433333333     0          
O        O      0.451100000000     0.333333333333     0.784433333333     0          
O        O      0.333333333333     0.451100000000     0.784433333333     0          
O        O      0.548900000000     0.333333333333     0.882233333333     0          
O        O      0.333333333333     0.548900000000     0.882233333333     0          
O        O      0.451100000000     0.333333333333     0.882233333333     0          
O        O      0.333333333333     0.451100000000     0.882233333333     0          
O        O      0.451100000000     0.548900000000     0.666666666667     0          
O        O      0.451100000000     0.451100000000     0.666666666667     0          
O        O      0.548900000000     0.451100000000     0.666666666667     0          
O        O      0.548900000000     0.548900000000     0.666666666667     0          
O        O      0.382233333333     0.833333333333     0.284433333333     0          
T        Si     0.416666666667     0.833333333333     0.000000000000     0          
O        O      0.500000000000     0.715566666667     0.284433333333     0          
T        Si     0.500000000000     0.750000000000     0.000000000000     0          
O        O      0.617766666667     0.833333333333     0.284433333333     0          
T        Si     0.583333333333     0.833333333333     0.000000000000     0          
O        O      0.500000000000     0.951100000000     0.284433333333     0          
T        Si     0.500000000000     0.916666666667     0.000000000000     0          
O        O      0.382233333333     0.833333333333     0.048900000000     0          
O        O      0.500000000000     0.715566666667     0.048900000000     0          
O        O      0.617766666667     0.833333333333     0.048900000000     0          
O        O      0.500000000000     0.951100000000     0.048900000000     0          
O        O      0.617766666667     0.715566666667     0.166666666667     0          
T        Si     0.333333333333     0.750000000000     0.166666666667     0          
O        O      0.617766666667     0.951100000000     0.166666666667     0          
T        Si     0.583333333333     0.666666666667     0.166666666667     0          
O        O      0.382233333333     0.951100000000     0.166666666667     0          
T        Si     0.333333333333     0.916666666667     0.166666666667     0          
O        O      0.382233333333     0.715566666667     0.166666666667     0          
T        Si     0.416666666667     0.666666666667     0.166666666667     0          
T        Si     0.500000000000     0.666666666667     0.083333333333     0          
T        Si     0.500000000000     0.666666666667     0.250000000000     0          
T        Si     0.333333333333     0.833333333333     0.250000000000     0          
T        Si     0.333333333333     0.833333333333     0.083333333333     0          
O        O      0.548900000000     0.666666666667     0.117766666667     0          
O        O      0.333333333333     0.882233333333     0.117766666667     0          
O        O      0.451100000000     0.666666666667     0.117766666667     0          
O        O      0.333333333333     0.784433333333     0.117766666667     0          
O        O      0.548900000000     0.666666666667     0.215566666667     0          
O        O      0.333333333333     0.882233333333     0.215566666667     0          
O        O      0.451100000000     0.666666666667     0.215566666667     0          
O        O      0.333333333333     0.784433333333     0.215566666667     0          
O        O      0.451100000000     0.882233333333     0.000000000000     0          
O        O      0.451100000000     0.784433333333     0.000000000000     0          
O        O      0.548900000000     0.784433333333     0.000000000000     0          
O        O      0.548900000000     0.882233333333     0.000000000000     0          
O        O      0.382233333333     0.833333333333     0.617766666667     0          
T        Si     0.416666666667     0.833333333333     0.333333333333     0          
O        O      0.500000000000     0.715566666667     0.617766666667     0          
T        Si     0.500000000000     0.750000000000     0.333333333333     0          
O        O      0.617766666667     0.833333333333     0.617766666667     0          
T        Si     0.583333333333     0.833333333333     0.333333333333     0          
O        O      0.500000000000     0.951100000000     0.617766666667     0          
T        Si     0.500000000000     0.916666666667     0.333333333333     0          
O        O      0.382233333333     0.833333333333     0.382233333333     0          
O        O      0.500000000000     0.715566666667     0.382233333333     0          
O        O      0.617766666667     0.833333333333     0.382233333333     0          
O        O      0.500000000000     0.951100000000     0.382233333333     0          
O        O      0.617766666667     0.715566666667     0.500000000000     0          
T        Si     0.333333333333     0.750000000000     0.500000000000     0          
O        O      0.617766666667     0.951100000000     0.500000000000     0          
T        Si     0.583333333333     0.666666666667     0.500000000000     0          
O        O      0.382233333333     0.951100000000     0.500000000000     0          
T        Si     0.333333333333     0.916666666667     0.500000000000     0          
O        O      0.382233333333     0.715566666667     0.500000000000     0          
T        Si     0.416666666667     0.666666666667     0.500000000000     0          
T        Si     0.500000000000     0.666666666667     0.416666666667     0          
T        Si     0.500000000000     0.666666666667     0.583333333333     0          
T        Si     0.333333333333     0.833333333333     0.583333333333     0          
T        Si     0.333333333333     0.833333333333     0.416666666667     0          
O        O      0.548900000000     0.666666666667     0.451100000000     0          
O        O      0.333333333333     0.882233333333     0.451100000000     0          
O        O      0.451100000000     0.666666666667     0.451100000000     0          
O        O      0.333333333333     0.784433333333     0.451100000000     0          
O        O      0.548900000000     0.666666666667     0.548900000000     0          
O        O      0.333333333333     0.882233333333     0.548900000000     0          
O        O      0.451100000000     0.666666666667     0.548900000000     0          
O        O      0.333333333333     0.784433333333     0.548900000000     0          
O        O      0.451100000000     0.882233333333     0.333333333333     0          
O        O      0.451100000000     0.784433333333     0.333333333333     0          
O        O      0.548900000000     0.784433333333     0.333333333333     0          
O        O      0.548900000000     0.882233333333     0.333333333333     0          
O        O      0.382233333333     0.833333333333     0.951100000000     0          
T        Si     0.416666666667     0.833333333333     0.666666666667     0          
O        O      0.500000000000     0.715566666667     0.951100000000     0          
T        Si     0.500000000000     0.750000000000     0.666666666667     0          
O        O      0.617766666667     0.833333333333     0.951100000000     0          
T        Si     0.583333333333     0.833333333333     0.666666666667     0          
O        O      0.500000000000     0.951100000000     0.951100000000     0          
T        Si     0.500000000000     0.916666666667     0.666666666667     0          
O        O      0.382233333333     0.833333333333     0.715566666667     0          
O        O      0.500000000000     0.715566666667     0.715566666667     0          
O        O      0.617766666667     0.833333333333     0.715566666667     0          
O        O      0.500000000000     0.951100000000     0.715566666667     0          
O        O      0.617766666667     0.715566666667     0.833333333333     0          
T        Si     0.333333333333     0.750000000000     0.833333333333     0          
O        O      0.617766666667     0.951100000000     0.833333333333     0          
T        Si     0.583333333333     0.666666666667     0.833333333333     0          
O        O      0.382233333333     0.951100000000     0.833333333333     0          
T        Si     0.333333333333     0.916666666667     0.833333333333     0          
O        O      0.382233333333     0.715566666667     0.833333333333     0          
T        Si     0.416666666667     0.666666666667     0.833333333333     0          
T        Si     0.500000000000     0.666666666667     0.750000000000     0          
T        Si     0.500000000000     0.666666666667     0.916666666667     0          
T        Si     0.333333333333     0.833333333333     0.916666666667     0          
T        Si     0.333333333333     0.833333333333     0.750000000000     0          
O        O      0.548900000000     0.666666666667     0.784433333333     0          
O        O      0.333333333333     0.882233333333     0.784433333333     0          
O        O      0.451100000000     0.666666666667     0.784433333333     0          
O        O      0.333333333333     0.784433333333     0.784433333333     0          
O        O      0.548900000000     0.666666666667     0.882233333333     0          
O        O      0.333333333333     0.882233333333     0.882233333333     0          
O        O      0.451100000000     0.666666666667     0.882233333333     0          
O        O      0.333333333333     0.784433333333     0.882233333333     0          
O        O      0.451100000000     0.882233333333     0.666666666667     0          
O        O      0.451100000000     0.784433333333     0.666666666667     0          
O        O      0.548900000000     0.784433333333     0.666666666667     0          
O        O      0.548900000000     0.882233333333     0.666666666667     0          
O        O      0.715566666667     0.166666666667     0.284433333333     0          
T        Si     0.750000000000     0.166666666667     0.000000000000     0          
O        O      0.833333333333     0.048900000000     0.284433333333     0          
T        Si     0.833333333333     0.083333333333     0.000000000000     0          
O        O      0.951100000000     0.166666666667     0.284433333333     0          
T        Si     0.916666666667     0.166666666667     0.000000000000     0          
O        O      0.833333333333     0.284433333333     0.284433333333     0          
T        Si     0.833333333333     0.250000000000     0.000000000000     0          
O        O      0.715566666667     0.166666666667     0.048900000000     0          
O        O      0.833333333333     0.048900000000     0.048900000000     0          
O        O      0.951100000000     0.166666666667     0.048900000000     0          
O        O      0.833333333333     0.284433333333     0.048900000000     0          
O        O      0.951100000000     0.048900000000     0.166666666667     0          
T        Si     0.666666666667     0.083333333333     0.166666666667     0          
O        O      0.951100000000     0.284433333333     0.166666666667     0          
T        Si     0.916666666667     0.000000000000     0.166666666667     0          
O        O      0.715566666667     0.284433333333     0.166666666667     0          
T        Si     0.666666666667     0.250000000000     0.166666666667     0          
O        O      0.715566666667     0.048900000000     0.166666666667     0          
T        Si     0.750000000000     0.000000000000     0.166666666667     0          
T        Si     0.833333333333     0.000000000000     0.083333333333     0          
T        Si     0.833333333333     0.000000000000     0.250000000000     0          
T        Si     0.666666666667     0.166666666667     0.250000000000     0          
T        Si     0.666666666667     0.166666666667     0.083333333333     0          
O        O      0.882233333333     0.000000000000     0.117766666667     0          
O        O      0.666666666667     0.215566666667     0.117766666667     0          
O        O      0.784433333333     0.000000000000     0.117766666667     0          
O        O      0.666666666667     0.117766666667     0.117766666667     0          
O        O      0.882233333333     0.000000000000     0.215566666667     0          
O        O      0.666666666667     0.215566666667     0.215566666667     0          
O        O      0.784433333333     0.000000000000     0.215566666667     0          
O        O      0.666666666667     0.117766666667     0.215566666667     0          
O        O      0.784433333333     0.215566666667     0.000000000000     0          
O        O      0.784433333333     0.117766666667     0.000000000000     0          
O        O      0.882233333333     0.117766666667     0.000000000000     0          
O        O      0.882233333333     0.215566666667     0.000000000000     0          
O        O      0.715566666667     0.166666666667     0.617766666667     0          
T        Si     0.750000000000     0.166666666667     0.333333333333     0          
O        O      0.833333333333     0.048900000000     0.617766666667     0          
T        Si     0.833333333333     0.083333333333     0.333333333333     0          
O        O      0.951100000000     0.166666666667     0.617766666667     0          
T        Si     0.916666666667     0.166666666667     0.333333333333     0          
O        O      0.833333333333     0.284433333333     0.617766666667     0          
T        Si     0.833333333333     0.250000000000     0.333333333333     0          
O        O      0.715566666667     0.166666666667     0.382233333333     0          
O        O      0.833333333333     0.048900000000     0.382233333333     0          
O        O      0.951100000000     0.166666666667     0.382233333333     0          
O        O      0.833333333333     0.284433333333     0.382233333333     0          
O        O      0.951100000000     0.048900000000     0.500000000000     0          
T        Si     0.666666666667     0.083333333333     0.500000000000     0          
O        O      0.951100000000     0.284433333333     0.500000000000     0          
T        Si     0.916666666667     0.000000000000     0.500000000000     0          
O        O      0.715566666667     0.284433333333     0.500000000000     0          
T        Si     0.666666666667     0.250000000000     0.500000000000     0          
O        O      0.715566666667     0.048900000000     0.500000000000     0          
T        Si     0.750000000000     0.000000000000     0.500000000000     0          
T        Si     0.833333333333     0.000000000000     0.416666666667     0          
T        Si     0.833333333333     0.000000000000     0.583333333333     0          
T        Si     0.666666666667     0.166666666667     0.583333333333     0          
T        Si     0.666666666667     0.166666666667     0.416666666667     0          
O        O      0.882233333333     0.000000000000     0.451100000000     0          
O        O      0.666666666667     0.215566666667     0.451100000000     0          
O        O      0.784433333333     0.000000000000     0.451100000000     0          
O        O      0.666666666667     0.117766666667     0.451100000000     0          
O        O      0.882233333333     0.000000000000     0.548900000000     0          
O        O      0.666666666667     0.215566666667     0.548900000000     0          
O        O      0.784433333333     0.000000000000     0.548900000000     0          
O        O      0.666666666667     0.117766666667     0.548900000000     0          
O        O      0.784433333333     0.215566666667     0.333333333333     0          
O        O      0.784433333333     0.117766666667     0.333333333333     0          
O        O      0.882233333333     0.117766666667     0.333333333333     0          
O        O      0.882233333333     0.215566666667     0.333333333333     0          
O        O      0.715566666667     0.166666666667     0.951100000000     0          
T        Si     0.750000000000     0.166666666667     0.666666666667     0          
O        O      0.833333333333     0.048900000000     0.951100000000     0          
T        Si     0.833333333333     0.083333333333     0.666666666667     0          
O        O      0.951100000000     0.166666666667     0.951100000000     0          
T        Si     0.916666666667     0.166666666667     0.666666666667     0          
O        O      0.833333333333     0.284433333333     0.951100000000     0          
T        Si     0.833333333333     0.250000000000     0.666666666667     0          
O        O      0.715566666667     0.166666666667     0.715566666667     0          
O        O      0.833333333333     0.048900000000     0.715566666667     0          
O        O      0.951100000000     0.166666666667     0.715566666667     0          
O        O      0.833333333333     0.284433333333     0.715566666667     0          
O        O      0.951100000000     0.048900000000     0.833333333333     0          
T        Si     0.666666666667     0.083333333333     0.833333333333     0          
O        O      0.951100000000     0.284433333333     0.833333333333     0          
T        Si     0.916666666667     0.000000000000     0.833333333333     0          
O        O      0.715566666667     0.284433333333     0.833333333333     0          
T        Si     0.666666666667     0.250000000000     0.833333333333     0          
O        O      0.715566666667     0.048900000000     0.833333333333     0          
T        Si     0.750000000000     0.000000000000     0.833333333333     0          
T        Si     0.833333333333     0.000000000000     0.750000000000     0          
T        Si     0.833333333333     0.000000000000     0.916666666667     0          
T        Si     0.666666666667     0.166666666667     0.916666666667     0          
T        Si     0.666666666667     0.166666666667     0.750000000000     0          
O        O      0.882233333333     0.000000000000     0.784433333333     0          
O        O      0.666666666667     0.215566666667     0.784433333333     0          
O        O      0.784433333333     0.000000000000     0.784433333333     0          
O        O      0.666666666667     0.117766666667     0.784433333333     0          
O        O      0.882233333333     0.000000000000     0.882233333333     0          
O        O      0.666666666667     0.215566666667     0.882233333333     0          
O        O      0.784433333333     0.000000000000     0.882233333333     0          
O        O      0.666666666667     0.117766666667     0.882233333333     0          
O        O      0.784433333333     0.215566666667     0.666666666667     0          
O        O      0.784433333333     0.117766666667     0.666666666667     0          
O        O      0.882233333333     0.117766666667     0.666666666667     0          
O        O      0.882233333333     0.215566666667     0.666666666667     0          
O        O      0.715566666667     0.500000000000     0.284433333333     0          
T        Si     0.750000000000     0.500000000000     0.000000000000     0          
O        O      0.833333333333     0.382233333333     0.284433333333     0          
T        Si     0.833333333333     0.416666666667     0.000000000000     0          
O        O      0.951100000000     0.500000000000     0.284433333333     0          
T        Si     0.916666666667     0.500000000000     0.000000000000     0          
O        O      0.833333333333     0.617766666667     0.284433333333     0          
T        Si     0.833333333333     0.583333333333     0.000000000000     0          
O        O      0.715566666667     0.500000000000     0.048900000000     0          
O        O      0.833333333333     0.382233333333     0.048900000000     0          
O        O      0.951100000000     0.500000000000     0.048900000000     0          
O        O      0.833333333333     0.617766666667     0.048900000000     0          
O        O      0.951100000000     0.382233333333     0.166666666667     0          
T        Si     0.666666666667     0.416666666667     0.166666666667     0          
O        O      0.951100000000     0.617766666667     0.166666666667     0          
T        Si     0.916666666667     0.333333333333     0.166666666667     0          
O        O      0.715566666667     0.617766666667     0.166666666667     0          
T        Si     0.666666666667     0.583333333333     0.166666666667     0          
O        O      0.715566666667     0.382233333333     0.166666666667     0          
T        Si     0.750000000000     0.333333333333     0.166666666667     0          
T        Si     0.833333333333     0.333333333333     0.083333333333     0          
T        Si     0.833333333333     0.333333333333     0.250000000000     0          
T        Si     0.666666666667     0.500000000000     0.250000000000     0          
T        Si     0.666666666667     0.500000000000     0.083333333333     0          
O        O      0.882233333333     0.333333333333     0.117766666667     0          
O        O      0.666666666667     0.548900000000     0.117766666667     0          
O        O      0.784433333333     0.333333333333     0.117766666667     0          
O        O      0.666666666667     0.451100000000     0.117766666667     0          
O        O      0.882233333333     0.333333333333     0.215566666667     0          
O        O      0.666666666667     0.548900000000     0.215566666667     0          
O        O      0.784433333333     0.333333333333     0.215566666667     0          
O        O      0.666666666667     0.451100000000     0.215566666667     0          
O        O      0.784433333333     0.548900000000     0.000000000000     0          
O        O      0.784433333333     0.451100000000     0.000000000000     0          
O        O      0.882233333333     0.451100000000     0.000000000000     0          
O        O      0.882233333333     0.548900000000     0.000000000000     0          
O        O      0.715566666667     0.500000000000     0.617766666667     0          
T        Si     0.750000000000     0.500000000000     0.333333333333     0          
O        O      0.833333333333     0.382233333333     0.617766666667     0          
T        Si     0.833333333333     0.416666666667     0.333333333333     0          
O        O      0.951100000000     0.500000000000     0.617766666667     0          
T        Si     0.916666666667     0.500000000000     0.333333333333     0          
O        O      0.833333333333     0.617766666667     0.617766666667     0          
T        Si     0.833333333333     0.583333333333     0.333333333333     0          
O        O      0.715566666667     0.500000000000     0.382233333333     0          
O        O      0.833333333333     0.382233333333     0.382233333333     0          
O        O      0.951100000000     0.500000000000     0.382233333333     0          
O        O      0.833333333333     0.617766666667     0.382233333333     0          
O        O      0.951100000000     0.382233333333     0.500000000000     0          
T        Si     0.666666666667     0.416666666667     0.500000000000     0          
O        O      0.951100000000     0.617766666667     0.500000000000     0          
T        Si     0.916666666667     0.333333333333     0.500000000000     0          
O        O      0.715566666667     0.617766666667     0.500000000000     0          
T        Si     0.666666666667     0.583333333333     0.500000000000     0          
O        O      0.715566666667     0.382233333333     0.500000000000     0          
T        Si     0.750000000000     0.333333333333     0.500000000000     0          
T        Si     0.833333333333     0.333333333333     0.416666666667     0          
T        Si     0.833333333333     0.333333333333     0.583333333333     0          
T        Si     0.666666666667     0.500000000000     0.583333333333     0          
T        Si     0.666666666667     0.500000000000     0.416666666667     0          
O        O      0.882233333333     0.333333333333     0.451100000000     0          
O        O      0.666666666667     0.548900000000     0.451100000000     0          
O        O      0.784433333333     0.333333333333     0.451100000000     0          
O        O      0.666666666667     0.451100000000     0.451100000000     0          
O        O      0.882233333333     0.333333333333     0.548900000000     0          
O        O      0.666666666667     0.548900000000     0.548900000000     0          
O        O      0.784433333333     0.333333333333     0.548900000000     0          
O        O      0.666666666667     0.451100000000     0.548900000000     0          
O        O      0.784433333333     0.548900000000     0.333333333333     0          
O        O      0.784433333333     0.451100000000     0.333333333333     0          
O        O      0.882233333333     0.451100000000     0.333333333333     0          
O        O      0.882233333333     0.548900000000     0.333333333333     0          
O        O      0.715566666667     0.500000000000     0.951100000000     0          
T        Si     0.750000000000     0.500000000000     0.666666666667     0          
O        O      0.833333333333     0.382233333333     0.951100000000     0          
T        Si     0.833333333333     0.416666666667     0.666666666667     0          
O        O      0.951100000000     0.500000000000     0.951100000000     0          
T        Si     0.916666666667     0.500000000000     0.666666666667     0          
O        O      0.833333333333     0.617766666667     0.951100000000     0          
T        Si     0.833333333333     0.583333333333     0.666666666667     0          
O        O      0.715566666667     0.500000000000     0.715566666667     0          
O        O      0.833333333333     0.382233333333     0.715566666667     0          
O        O      0.951100000000     0.500000000000     0.715566666667     0          
O        O      0.833333333333     0.617766666667     0.715566666667     0          
O        O      0.951100000000     0.382233333333     0.833333333333     0          
T        Si     0.666666666667     0.416666666667     0.833333333333     0          
O        O      0.951100000000     0.617766666667     0.833333333333     0          
T        Si     0.916666666667     0.333333333333     0.833333333333     0          
O        O      0.715566666667     0.617766666667     0.833333333333     0          
T        Si     0.666666666667     0.583333333333     0.833333333333     0          
O        O      0.715566666667     0.382233333333     0.833333333333     0          
T        Si     0.750000000000     0.333333333333     0.833333333333     0          
T        Si     0.833333333333     0.333333333333     0.750000000000     0          
T        Si     0.833333333333     0.333333333333     0.916666666667     0          
T        Si     0.666666666667     0.500000000000     0.916666666667     0          
T        Si     0.666666666667     0.500000000000     0.750000000000     0          
O        O      0.882233333333     0.333333333333     0.784433333333     0          
O        O      0.666666666667     0.548900000000     0.784433333333     0          
O        O      0.784433333333     0.333333333333     0.784433333333     0          
O        O      0.666666666667     0.451100000000     0.784433333333     0          
O        O      0.882233333333     0.333333333333     0.882233333333     0          
O        O      0.666666666667     0.548900000000     0.882233333333     0          
O        O      0.784433333333     0.333333333333     0.882233333333     0          
O        O      0.666666666667     0.451100000000     0.882233333333     0          
O        O      0.784433333333     0.548900000000     0.666666666667     0          
O        O      0.784433333333     0.451100000000     0.666666666667     0          
O        O      0.882233333333     0.451100000000     0.666666666667     0          
O        O      0.882233333333     0.548900000000     0.666666666667     0          
O        O      0.715566666667     0.833333333333     0.284433333333     0          
T        Si     0.750000000000     0.833333333333     0.000000000000     0          
O        O      0.833333333333     0.715566666667     0.284433333333     0          
T        Si     0.833333333333     0.750000000000     0.000000000000     0          
O        O      0.951100000000     0.833333333333     0.284433333333     0          
T        Si     0.916666666667     0.833333333333     0.000000000000     0          
O        O      0.833333333333     0.951100000000     0.284433333333     0          
T        Si     0.833333333333     0.916666666667     0.000000000000     0          
O        O      0.715566666667     0.833333333333     0.048900000000     0          
O        O      0.833333333333     0.715566666667     0.048900000000     0          
O        O      0.951100000000     0.833333333333     0.048900000000     0          
O        O      0.833333333333     0.951100000000     0.048900000000     0          
O        O      0.951100000000     0.715566666667     0.166666666667     0          
T        Si     0.666666666667     0.750000000000     0.166666666667     0          
O        O      0.951100000000     0.951100000000     0.166666666667     0          
T        Si     0.916666666667     0.666666666667     0.166666666667     0          
O        O      0.715566666667     0.951100000000     0.166666666667     0          
T        Si     0.666666666667     0.916666666667     0.166666666667     0          
O        O      0.715566666667     0.715566666667     0.166666666667     0          
T        Si     0.750000000000     0.666666666667     0.166666666667     0          
T        Si     0.833333333333     0.666666666667     0.083333333333     0          
T        Si     0.833333333333     0.666666666667     0.250000000000     0          
T        Si     0.666666666667     0.833333333333     0.250000000000     0          
T        Si     0.666666666667     0.833333333333     0.083333333333     0          
O        O      0.882233333333     0.666666666667     0.117766666667     0          
O        O      0.666666666667     0.882233333333     0.117766666667     0          
O        O      0.784433333333     0.666666666667     0.117766666667     0          
O        O      0.666666666667     0.784433333333     0.117766666667     0          
O        O      0.882233333333     0.666666666667     0.215566666667     0          
O        O      0.666666666667     0.882233333333     0.215566666667     0          
O        O      0.784433333333     0.666666666667     0.215566666667     0          
O        O      0.666666666667     0.784433333333     0.215566666667     0          
O        O      0.784433333333     0.882233333333     0.000000000000     0          
O        O      0.784433333333     0.784433333333     0.000000000000     0          
O        O      0.882233333333     0.784433333333     0.000000000000     0          
O        O      0.882233333333     0.882233333333     0.000000000000     0          
O        O      0.715566666667     0.833333333333     0.617766666667     0          
T        Si     0.750000000000     0.833333333333     0.333333333333     0          
O        O      0.833333333333     0.715566666667     0.617766666667     0          
T        Si     0.833333333333     0.750000000000     0.333333333333     0          
O        O      0.951100000000     0.833333333333     0.617766666667     0          
T        Si     0.916666666667     0.833333333333     0.333333333333     0          
O        O      0.833333333333     0.951100000000     0.617766666667     0          
T        Si     0.833333333333     0.916666666667     0.333333333333     0          
O        O      0.715566666667     0.833333333333     0.382233333333     0          
O        O      0.833333333333     0.715566666667     0.382233333333     0          
O        O      0.951100000000     0.833333333333     0.382233333333     0          
O        O      0.833333333333     0.951100000000     0.382233333333     0          
O        O      0.951100000000     0.715566666667     0.500000000000     0          
T        Si     0.666666666667     0.750000000000     0.500000000000     0          
O        O      0.951100000000     0.951100000000     0.500000000000     0          
T        Si     0.916666666667     0.666666666667     0.500000000000     0          
O        O      0.715566666667     0.951100000000     0.500000000000     0          
T        Si     0.666666666667     0.916666666667     0.500000000000     0          
O        O      0.715566666667     0.715566666667     0.500000000000     0          
T        Si     0.750000000000     0.666666666667     0.500000000000     0          
T        Si     0.833333333333     0.666666666667     0.416666666667     0          
T        Si     0.833333333333     0.666666666667     0.583333333333     0          
T        Si     0.666666666667     0.833333333333     0.583333333333     0          
T        Si     0.666666666667     0.833333333333     0.416666666667     0          
O        O      0.882233333333     0.666666666667     0.451100000000     0          
O        O      0.666666666667     0.882233333333     0.451100000000     0          
O        O      0.784433333333     0.666666666667     0.451100000000     0          
O        O      0.666666666667     0.784433333333     0.451100000000     0          
O        O      0.882233333333     0.666666666667     0.548900000000     0          
O        O      0.666666666667     0.882233333333     0.548900000000     0          
O        O      0.784433333333     0.666666666667     0.548900000000     0          
O        O      0.666666666667     0.784433333333     0.548900000000     0          
O        O      0.784433333333     0.882233333333     0.333333333333     0          
O        O      0.784433333333     0.784433333333     0.333333333333     0          
O        O      0.882233333333     0.784433333333     0.333333333333     0          
O        O      0.882233333333     0.882233333333     0.333333333333     0          
O        O      0.715566666667     0.833333333333     0.951100000000     0          
T        Si     0.750000000000     0.833333333333     0.666666666667     0          
O        O      0.833333333333     0.715566666667     0.951100000000     0          
T        Si     0.833333333333     0.750000000000     0.666666666667     0          
O        O      0.951100000000     0.833333333333     0.951100000000     0          
T        Si     0.916666666667     0.833333333333     0.666666666667     0          
O        O      0.833333333333     0.951100000000     0.951100000000     0          
T        Si     0.833333333333     0.916666666667     0.666666666667     0          
O        O      0.715566666667     0.833333333333     0.715566666667     0          
O        O      0.833333333333     0.715566666667     0.715566666667     0          
O        O      0.951100000000     0.833333333333     0.715566666667     0          
O        O      0.833333333333     0.951100000000     0.715566666667     0          
O        O      0.951100000000     0.715566666667     0.833333333333     0          
T        Si     0.666666666667     0.750000000000     0.833333333333     0          
O        O      0.951100000000     0.951100000000     0.833333333333     0          
T        Si     0.916666666667     0.666666666667     0.833333333333     0          
O        O      0.715566666667     0.951100000000     0.833333333333     0          
T        Si     0.666666666667     0.916666666667     0.833333333333     0          
O        O      0.715566666667     0.715566666667     0.833333333333     0          
T        Si     0.750000000000     0.666666666667     0.833333333333     0          
T        Si     0.833333333333     0.666666666667     0.750000000000     0          
T        Si     0.833333333333     0.666666666667     0.916666666667     0          
T        Si     0.666666666667     0.833333333333     0.916666666667     0          
T        Si     0.666666666667     0.833333333333     0.750000000000     0          
O        O      0.882233333333     0.666666666667     0.784433333333     0          
O        O      0.666666666667     0.882233333333     0.784433333333     0          
O        O      0.784433333333     0.666666666667     0.784433333333     0          
O        O      0.666666666667     0.784433333333     0.784433333333     0          
O        O      0.882233333333     0.666666666667     0.882233333333     0          
O        O      0.666666666667     0.882233333333     0.882233333333     0          
O        O      0.784433333333     0.666666666667     0.882233333333     0          
O        O      0.666666666667     0.784433333333     0.882233333333     0          
O        O      0.784433333333     0.882233333333     0.666666666667     0          
O        O      0.784433333333     0.784433333333     0.666666666667     0          
O        O      0.882233333333     0.784433333333     0.666666666667     0          
O        O      0.882233333333     0.882233333333     0.666666666667     0          


