data_zeolite

_audit_creation_method RASPA-1.0
_audit_creation_date 2021-6-7
_audit_author_name ''

_cell_length_a    5.256
_cell_length_b    22.031
_cell_length_c    11.384
_cell_angle_alpha 90
_cell_angle_beta  90
_cell_angle_gamma 90
_cell_volume      39546.3

_symmetry_cell_setting          orthorhombic
_symmetry_space_group_name_Hall 'P 1'
_symmetry_space_group_name_H-M  'P 1'
_symmetry_Int_Tables_number     1

_symmetry_equiv_pos_as_xyz 'x,y,z'

loop_
_atom_site_label
_atom_site_type_symbol
_atom_site_fract_x
_atom_site_fract_y
_atom_site_fract_z
_atom_site_charge
T        Si     0.000000000000     0.104150000000     0.329966666667     0          
T        Si     0.000000000000     0.086650000000     0.241233333333     0          
T        Si     0.000000000000     0.066400000000     0.075300000000     0          
T        Si     0.100000000000     0.093200000000     0.116866666667     0          
T        Si     0.100000000000     0.064000000000     0.199466666667     0          
T        Si     0.100000000000     0.000000000000     0.155700000000     0          
T        Si     0.000000000000     0.000000000000     0.101366666667     0          
T        Si     0.000000000000     0.395850000000     0.329966666667     0          
T        Si     0.000000000000     0.413350000000     0.241233333333     0          
T        Si     0.000000000000     0.433600000000     0.075300000000     0          
T        Si     0.100000000000     0.406800000000     0.116866666667     0          
T        Si     0.100000000000     0.436000000000     0.199466666667     0          
T        Si     0.100000000000     0.145850000000     0.003366666667     0          
T        Si     0.100000000000     0.163350000000     0.092100000000     0          
T        Si     0.100000000000     0.183600000000     0.258033333333     0          
T        Si     0.000000000000     0.156800000000     0.216466666667     0          
T        Si     0.000000000000     0.186000000000     0.133866666667     0          
T        Si     0.000000000000     0.250000000000     0.177633333333     0          
T        Si     0.100000000000     0.250000000000     0.231966666667     0          
T        Si     0.100000000000     0.354150000000     0.003366666667     0          
T        Si     0.100000000000     0.336650000000     0.092100000000     0          
T        Si     0.100000000000     0.316400000000     0.258033333333     0          
T        Si     0.000000000000     0.343200000000     0.216466666667     0          
T        Si     0.000000000000     0.314000000000     0.133866666667     0          
T        Si     0.000000000000     0.104150000000     0.663300000000     0          
T        Si     0.000000000000     0.086650000000     0.574566666667     0          
T        Si     0.000000000000     0.066400000000     0.408633333333     0          
T        Si     0.100000000000     0.093200000000     0.450200000000     0          
T        Si     0.100000000000     0.064000000000     0.532800000000     0          
T        Si     0.100000000000     0.000000000000     0.489033333333     0          
T        Si     0.000000000000     0.000000000000     0.434700000000     0          
T        Si     0.000000000000     0.395850000000     0.663300000000     0          
T        Si     0.000000000000     0.413350000000     0.574566666667     0          
T        Si     0.000000000000     0.433600000000     0.408633333333     0          
T        Si     0.100000000000     0.406800000000     0.450200000000     0          
T        Si     0.100000000000     0.436000000000     0.532800000000     0          
T        Si     0.100000000000     0.145850000000     0.336700000000     0          
T        Si     0.100000000000     0.163350000000     0.425433333333     0          
T        Si     0.100000000000     0.183600000000     0.591366666667     0          
T        Si     0.000000000000     0.156800000000     0.549800000000     0          
T        Si     0.000000000000     0.186000000000     0.467200000000     0          
T        Si     0.000000000000     0.250000000000     0.510966666667     0          
T        Si     0.100000000000     0.250000000000     0.565300000000     0          
T        Si     0.100000000000     0.354150000000     0.336700000000     0          
T        Si     0.100000000000     0.336650000000     0.425433333333     0          
T        Si     0.100000000000     0.316400000000     0.591366666667     0          
T        Si     0.000000000000     0.343200000000     0.549800000000     0          
T        Si     0.000000000000     0.314000000000     0.467200000000     0          
T        Si     0.000000000000     0.104150000000     0.996633333333     0          
T        Si     0.000000000000     0.086650000000     0.907900000000     0          
T        Si     0.000000000000     0.066400000000     0.741966666667     0          
T        Si     0.100000000000     0.093200000000     0.783533333333     0          
T        Si     0.100000000000     0.064000000000     0.866133333333     0          
T        Si     0.100000000000     0.000000000000     0.822366666667     0          
T        Si     0.000000000000     0.000000000000     0.768033333333     0          
T        Si     0.000000000000     0.395850000000     0.996633333333     0          
T        Si     0.000000000000     0.413350000000     0.907900000000     0          
T        Si     0.000000000000     0.433600000000     0.741966666667     0          
T        Si     0.100000000000     0.406800000000     0.783533333333     0          
T        Si     0.100000000000     0.436000000000     0.866133333333     0          
T        Si     0.100000000000     0.145850000000     0.670033333333     0          
T        Si     0.100000000000     0.163350000000     0.758766666667     0          
T        Si     0.100000000000     0.183600000000     0.924700000000     0          
T        Si     0.000000000000     0.156800000000     0.883133333333     0          
T        Si     0.000000000000     0.186000000000     0.800533333333     0          
T        Si     0.000000000000     0.250000000000     0.844300000000     0          
T        Si     0.100000000000     0.250000000000     0.898633333333     0          
T        Si     0.100000000000     0.354150000000     0.670033333333     0          
T        Si     0.100000000000     0.336650000000     0.758766666667     0          
T        Si     0.100000000000     0.316400000000     0.924700000000     0          
T        Si     0.000000000000     0.343200000000     0.883133333333     0          
T        Si     0.000000000000     0.314000000000     0.800533333333     0          
T        Si     0.000000000000     0.604150000000     0.329966666667     0          
T        Si     0.000000000000     0.586650000000     0.241233333333     0          
T        Si     0.000000000000     0.566400000000     0.075300000000     0          
T        Si     0.100000000000     0.593200000000     0.116866666667     0          
T        Si     0.100000000000     0.564000000000     0.199466666667     0          
T        Si     0.100000000000     0.500000000000     0.155700000000     0          
T        Si     0.000000000000     0.500000000000     0.101366666667     0          
T        Si     0.000000000000     0.895850000000     0.329966666667     0          
T        Si     0.000000000000     0.913350000000     0.241233333333     0          
T        Si     0.000000000000     0.933600000000     0.075300000000     0          
T        Si     0.100000000000     0.906800000000     0.116866666667     0          
T        Si     0.100000000000     0.936000000000     0.199466666667     0          
T        Si     0.100000000000     0.645850000000     0.003366666667     0          
T        Si     0.100000000000     0.663350000000     0.092100000000     0          
T        Si     0.100000000000     0.683600000000     0.258033333333     0          
T        Si     0.000000000000     0.656800000000     0.216466666667     0          
T        Si     0.000000000000     0.686000000000     0.133866666667     0          
T        Si     0.000000000000     0.750000000000     0.177633333333     0          
T        Si     0.100000000000     0.750000000000     0.231966666667     0          
T        Si     0.100000000000     0.854150000000     0.003366666667     0          
T        Si     0.100000000000     0.836650000000     0.092100000000     0          
T        Si     0.100000000000     0.816400000000     0.258033333333     0          
T        Si     0.000000000000     0.843200000000     0.216466666667     0          
T        Si     0.000000000000     0.814000000000     0.133866666667     0          
T        Si     0.000000000000     0.604150000000     0.663300000000     0          
T        Si     0.000000000000     0.586650000000     0.574566666667     0          
T        Si     0.000000000000     0.566400000000     0.408633333333     0          
T        Si     0.100000000000     0.593200000000     0.450200000000     0          
T        Si     0.100000000000     0.564000000000     0.532800000000     0          
T        Si     0.100000000000     0.500000000000     0.489033333333     0          
T        Si     0.000000000000     0.500000000000     0.434700000000     0          
T        Si     0.000000000000     0.895850000000     0.663300000000     0          
T        Si     0.000000000000     0.913350000000     0.574566666667     0          
T        Si     0.000000000000     0.933600000000     0.408633333333     0          
T        Si     0.100000000000     0.906800000000     0.450200000000     0          
T        Si     0.100000000000     0.936000000000     0.532800000000     0          
T        Si     0.100000000000     0.645850000000     0.336700000000     0          
T        Si     0.100000000000     0.663350000000     0.425433333333     0          
T        Si     0.100000000000     0.683600000000     0.591366666667     0          
T        Si     0.000000000000     0.656800000000     0.549800000000     0          
T        Si     0.000000000000     0.686000000000     0.467200000000     0          
T        Si     0.000000000000     0.750000000000     0.510966666667     0          
T        Si     0.100000000000     0.750000000000     0.565300000000     0          
T        Si     0.100000000000     0.854150000000     0.336700000000     0          
T        Si     0.100000000000     0.836650000000     0.425433333333     0          
T        Si     0.100000000000     0.816400000000     0.591366666667     0          
T        Si     0.000000000000     0.843200000000     0.549800000000     0          
T        Si     0.000000000000     0.814000000000     0.467200000000     0          
T        Si     0.000000000000     0.604150000000     0.996633333333     0          
T        Si     0.000000000000     0.586650000000     0.907900000000     0          
T        Si     0.000000000000     0.566400000000     0.741966666667     0          
T        Si     0.100000000000     0.593200000000     0.783533333333     0          
T        Si     0.100000000000     0.564000000000     0.866133333333     0          
T        Si     0.100000000000     0.500000000000     0.822366666667     0          
T        Si     0.000000000000     0.500000000000     0.768033333333     0          
T        Si     0.000000000000     0.895850000000     0.996633333333     0          
T        Si     0.000000000000     0.913350000000     0.907900000000     0          
T        Si     0.000000000000     0.933600000000     0.741966666667     0          
T        Si     0.100000000000     0.906800000000     0.783533333333     0          
T        Si     0.100000000000     0.936000000000     0.866133333333     0          
T        Si     0.100000000000     0.645850000000     0.670033333333     0          
T        Si     0.100000000000     0.663350000000     0.758766666667     0          
T        Si     0.100000000000     0.683600000000     0.924700000000     0          
T        Si     0.000000000000     0.656800000000     0.883133333333     0          
T        Si     0.000000000000     0.686000000000     0.800533333333     0          
T        Si     0.000000000000     0.750000000000     0.844300000000     0          
T        Si     0.100000000000     0.750000000000     0.898633333333     0          
T        Si     0.100000000000     0.854150000000     0.670033333333     0          
T        Si     0.100000000000     0.836650000000     0.758766666667     0          
T        Si     0.100000000000     0.816400000000     0.924700000000     0          
T        Si     0.000000000000     0.843200000000     0.883133333333     0          
T        Si     0.000000000000     0.814000000000     0.800533333333     0          
T        Si     0.200000000000     0.104150000000     0.329966666667     0          
T        Si     0.200000000000     0.086650000000     0.241233333333     0          
T        Si     0.200000000000     0.066400000000     0.075300000000     0          
T        Si     0.300000000000     0.093200000000     0.116866666667     0          
T        Si     0.300000000000     0.064000000000     0.199466666667     0          
T        Si     0.300000000000     0.000000000000     0.155700000000     0          
T        Si     0.200000000000     0.000000000000     0.101366666667     0          
T        Si     0.200000000000     0.395850000000     0.329966666667     0          
T        Si     0.200000000000     0.413350000000     0.241233333333     0          
T        Si     0.200000000000     0.433600000000     0.075300000000     0          
T        Si     0.300000000000     0.406800000000     0.116866666667     0          
T        Si     0.300000000000     0.436000000000     0.199466666667     0          
T        Si     0.300000000000     0.145850000000     0.003366666667     0          
T        Si     0.300000000000     0.163350000000     0.092100000000     0          
T        Si     0.300000000000     0.183600000000     0.258033333333     0          
T        Si     0.200000000000     0.156800000000     0.216466666667     0          
T        Si     0.200000000000     0.186000000000     0.133866666667     0          
T        Si     0.200000000000     0.250000000000     0.177633333333     0          
T        Si     0.300000000000     0.250000000000     0.231966666667     0          
T        Si     0.300000000000     0.354150000000     0.003366666667     0          
T        Si     0.300000000000     0.336650000000     0.092100000000     0          
T        Si     0.300000000000     0.316400000000     0.258033333333     0          
T        Si     0.200000000000     0.343200000000     0.216466666667     0          
T        Si     0.200000000000     0.314000000000     0.133866666667     0          
T        Si     0.200000000000     0.104150000000     0.663300000000     0          
T        Si     0.200000000000     0.086650000000     0.574566666667     0          
T        Si     0.200000000000     0.066400000000     0.408633333333     0          
T        Si     0.300000000000     0.093200000000     0.450200000000     0          
T        Si     0.300000000000     0.064000000000     0.532800000000     0          
T        Si     0.300000000000     0.000000000000     0.489033333333     0          
T        Si     0.200000000000     0.000000000000     0.434700000000     0          
T        Si     0.200000000000     0.395850000000     0.663300000000     0          
T        Si     0.200000000000     0.413350000000     0.574566666667     0          
T        Si     0.200000000000     0.433600000000     0.408633333333     0          
T        Si     0.300000000000     0.406800000000     0.450200000000     0          
T        Si     0.300000000000     0.436000000000     0.532800000000     0          
T        Si     0.300000000000     0.145850000000     0.336700000000     0          
T        Si     0.300000000000     0.163350000000     0.425433333333     0          
T        Si     0.300000000000     0.183600000000     0.591366666667     0          
T        Si     0.200000000000     0.156800000000     0.549800000000     0          
T        Si     0.200000000000     0.186000000000     0.467200000000     0          
T        Si     0.200000000000     0.250000000000     0.510966666667     0          
T        Si     0.300000000000     0.250000000000     0.565300000000     0          
T        Si     0.300000000000     0.354150000000     0.336700000000     0          
T        Si     0.300000000000     0.336650000000     0.425433333333     0          
T        Si     0.300000000000     0.316400000000     0.591366666667     0          
T        Si     0.200000000000     0.343200000000     0.549800000000     0          
T        Si     0.200000000000     0.314000000000     0.467200000000     0          
T        Si     0.200000000000     0.104150000000     0.996633333333     0          
T        Si     0.200000000000     0.086650000000     0.907900000000     0          
T        Si     0.200000000000     0.066400000000     0.741966666667     0          
T        Si     0.300000000000     0.093200000000     0.783533333333     0          
T        Si     0.300000000000     0.064000000000     0.866133333333     0          
T        Si     0.300000000000     0.000000000000     0.822366666667     0          
T        Si     0.200000000000     0.000000000000     0.768033333333     0          
T        Si     0.200000000000     0.395850000000     0.996633333333     0          
T        Si     0.200000000000     0.413350000000     0.907900000000     0          
T        Si     0.200000000000     0.433600000000     0.741966666667     0          
T        Si     0.300000000000     0.406800000000     0.783533333333     0          
T        Si     0.300000000000     0.436000000000     0.866133333333     0          
T        Si     0.300000000000     0.145850000000     0.670033333333     0          
T        Si     0.300000000000     0.163350000000     0.758766666667     0          
T        Si     0.300000000000     0.183600000000     0.924700000000     0          
T        Si     0.200000000000     0.156800000000     0.883133333333     0          
T        Si     0.200000000000     0.186000000000     0.800533333333     0          
T        Si     0.200000000000     0.250000000000     0.844300000000     0          
T        Si     0.300000000000     0.250000000000     0.898633333333     0          
T        Si     0.300000000000     0.354150000000     0.670033333333     0          
T        Si     0.300000000000     0.336650000000     0.758766666667     0          
T        Si     0.300000000000     0.316400000000     0.924700000000     0          
T        Si     0.200000000000     0.343200000000     0.883133333333     0          
T        Si     0.200000000000     0.314000000000     0.800533333333     0          
T        Si     0.200000000000     0.604150000000     0.329966666667     0          
T        Si     0.200000000000     0.586650000000     0.241233333333     0          
T        Si     0.200000000000     0.566400000000     0.075300000000     0          
T        Si     0.300000000000     0.593200000000     0.116866666667     0          
T        Si     0.300000000000     0.564000000000     0.199466666667     0          
T        Si     0.300000000000     0.500000000000     0.155700000000     0          
T        Si     0.200000000000     0.500000000000     0.101366666667     0          
T        Si     0.200000000000     0.895850000000     0.329966666667     0          
T        Si     0.200000000000     0.913350000000     0.241233333333     0          
T        Si     0.200000000000     0.933600000000     0.075300000000     0          
T        Si     0.300000000000     0.906800000000     0.116866666667     0          
T        Si     0.300000000000     0.936000000000     0.199466666667     0          
T        Si     0.300000000000     0.645850000000     0.003366666667     0          
T        Si     0.300000000000     0.663350000000     0.092100000000     0          
T        Si     0.300000000000     0.683600000000     0.258033333333     0          
T        Si     0.200000000000     0.656800000000     0.216466666667     0          
T        Si     0.200000000000     0.686000000000     0.133866666667     0          
T        Si     0.200000000000     0.750000000000     0.177633333333     0          
T        Si     0.300000000000     0.750000000000     0.231966666667     0          
T        Si     0.300000000000     0.854150000000     0.003366666667     0          
T        Si     0.300000000000     0.836650000000     0.092100000000     0          
T        Si     0.300000000000     0.816400000000     0.258033333333     0          
T        Si     0.200000000000     0.843200000000     0.216466666667     0          
T        Si     0.200000000000     0.814000000000     0.133866666667     0          
T        Si     0.200000000000     0.604150000000     0.663300000000     0          
T        Si     0.200000000000     0.586650000000     0.574566666667     0          
T        Si     0.200000000000     0.566400000000     0.408633333333     0          
T        Si     0.300000000000     0.593200000000     0.450200000000     0          
T        Si     0.300000000000     0.564000000000     0.532800000000     0          
T        Si     0.300000000000     0.500000000000     0.489033333333     0          
T        Si     0.200000000000     0.500000000000     0.434700000000     0          
T        Si     0.200000000000     0.895850000000     0.663300000000     0          
T        Si     0.200000000000     0.913350000000     0.574566666667     0          
T        Si     0.200000000000     0.933600000000     0.408633333333     0          
T        Si     0.300000000000     0.906800000000     0.450200000000     0          
T        Si     0.300000000000     0.936000000000     0.532800000000     0          
T        Si     0.300000000000     0.645850000000     0.336700000000     0          
T        Si     0.300000000000     0.663350000000     0.425433333333     0          
T        Si     0.300000000000     0.683600000000     0.591366666667     0          
T        Si     0.200000000000     0.656800000000     0.549800000000     0          
T        Si     0.200000000000     0.686000000000     0.467200000000     0          
T        Si     0.200000000000     0.750000000000     0.510966666667     0          
T        Si     0.300000000000     0.750000000000     0.565300000000     0          
T        Si     0.300000000000     0.854150000000     0.336700000000     0          
T        Si     0.300000000000     0.836650000000     0.425433333333     0          
T        Si     0.300000000000     0.816400000000     0.591366666667     0          
T        Si     0.200000000000     0.843200000000     0.549800000000     0          
T        Si     0.200000000000     0.814000000000     0.467200000000     0          
T        Si     0.200000000000     0.604150000000     0.996633333333     0          
T        Si     0.200000000000     0.586650000000     0.907900000000     0          
T        Si     0.200000000000     0.566400000000     0.741966666667     0          
T        Si     0.300000000000     0.593200000000     0.783533333333     0          
T        Si     0.300000000000     0.564000000000     0.866133333333     0          
T        Si     0.300000000000     0.500000000000     0.822366666667     0          
T        Si     0.200000000000     0.500000000000     0.768033333333     0          
T        Si     0.200000000000     0.895850000000     0.996633333333     0          
T        Si     0.200000000000     0.913350000000     0.907900000000     0          
T        Si     0.200000000000     0.933600000000     0.741966666667     0          
T        Si     0.300000000000     0.906800000000     0.783533333333     0          
T        Si     0.300000000000     0.936000000000     0.866133333333     0          
T        Si     0.300000000000     0.645850000000     0.670033333333     0          
T        Si     0.300000000000     0.663350000000     0.758766666667     0          
T        Si     0.300000000000     0.683600000000     0.924700000000     0          
T        Si     0.200000000000     0.656800000000     0.883133333333     0          
T        Si     0.200000000000     0.686000000000     0.800533333333     0          
T        Si     0.200000000000     0.750000000000     0.844300000000     0          
T        Si     0.300000000000     0.750000000000     0.898633333333     0          
T        Si     0.300000000000     0.854150000000     0.670033333333     0          
T        Si     0.300000000000     0.836650000000     0.758766666667     0          
T        Si     0.300000000000     0.816400000000     0.924700000000     0          
T        Si     0.200000000000     0.843200000000     0.883133333333     0          
T        Si     0.200000000000     0.814000000000     0.800533333333     0          
T        Si     0.400000000000     0.104150000000     0.329966666667     0          
T        Si     0.400000000000     0.086650000000     0.241233333333     0          
T        Si     0.400000000000     0.066400000000     0.075300000000     0          
T        Si     0.500000000000     0.093200000000     0.116866666667     0          
T        Si     0.500000000000     0.064000000000     0.199466666667     0          
T        Si     0.500000000000     0.000000000000     0.155700000000     0          
T        Si     0.400000000000     0.000000000000     0.101366666667     0          
T        Si     0.400000000000     0.395850000000     0.329966666667     0          
T        Si     0.400000000000     0.413350000000     0.241233333333     0          
T        Si     0.400000000000     0.433600000000     0.075300000000     0          
T        Si     0.500000000000     0.406800000000     0.116866666667     0          
T        Si     0.500000000000     0.436000000000     0.199466666667     0          
T        Si     0.500000000000     0.145850000000     0.003366666667     0          
T        Si     0.500000000000     0.163350000000     0.092100000000     0          
T        Si     0.500000000000     0.183600000000     0.258033333333     0          
T        Si     0.400000000000     0.156800000000     0.216466666667     0          
T        Si     0.400000000000     0.186000000000     0.133866666667     0          
T        Si     0.400000000000     0.250000000000     0.177633333333     0          
T        Si     0.500000000000     0.250000000000     0.231966666667     0          
T        Si     0.500000000000     0.354150000000     0.003366666667     0          
T        Si     0.500000000000     0.336650000000     0.092100000000     0          
T        Si     0.500000000000     0.316400000000     0.258033333333     0          
T        Si     0.400000000000     0.343200000000     0.216466666667     0          
T        Si     0.400000000000     0.314000000000     0.133866666667     0          
T        Si     0.400000000000     0.104150000000     0.663300000000     0          
T        Si     0.400000000000     0.086650000000     0.574566666667     0          
T        Si     0.400000000000     0.066400000000     0.408633333333     0          
T        Si     0.500000000000     0.093200000000     0.450200000000     0          
T        Si     0.500000000000     0.064000000000     0.532800000000     0          
T        Si     0.500000000000     0.000000000000     0.489033333333     0          
T        Si     0.400000000000     0.000000000000     0.434700000000     0          
T        Si     0.400000000000     0.395850000000     0.663300000000     0          
T        Si     0.400000000000     0.413350000000     0.574566666667     0          
T        Si     0.400000000000     0.433600000000     0.408633333333     0          
T        Si     0.500000000000     0.406800000000     0.450200000000     0          
T        Si     0.500000000000     0.436000000000     0.532800000000     0          
T        Si     0.500000000000     0.145850000000     0.336700000000     0          
T        Si     0.500000000000     0.163350000000     0.425433333333     0          
T        Si     0.500000000000     0.183600000000     0.591366666667     0          
T        Si     0.400000000000     0.156800000000     0.549800000000     0          
T        Si     0.400000000000     0.186000000000     0.467200000000     0          
T        Si     0.400000000000     0.250000000000     0.510966666667     0          
T        Si     0.500000000000     0.250000000000     0.565300000000     0          
T        Si     0.500000000000     0.354150000000     0.336700000000     0          
T        Si     0.500000000000     0.336650000000     0.425433333333     0          
T        Si     0.500000000000     0.316400000000     0.591366666667     0          
T        Si     0.400000000000     0.343200000000     0.549800000000     0          
T        Si     0.400000000000     0.314000000000     0.467200000000     0          
T        Si     0.400000000000     0.104150000000     0.996633333333     0          
T        Si     0.400000000000     0.086650000000     0.907900000000     0          
T        Si     0.400000000000     0.066400000000     0.741966666667     0          
T        Si     0.500000000000     0.093200000000     0.783533333333     0          
T        Si     0.500000000000     0.064000000000     0.866133333333     0          
T        Si     0.500000000000     0.000000000000     0.822366666667     0          
T        Si     0.400000000000     0.000000000000     0.768033333333     0          
T        Si     0.400000000000     0.395850000000     0.996633333333     0          
T        Si     0.400000000000     0.413350000000     0.907900000000     0          
T        Si     0.400000000000     0.433600000000     0.741966666667     0          
T        Si     0.500000000000     0.406800000000     0.783533333333     0          
T        Si     0.500000000000     0.436000000000     0.866133333333     0          
T        Si     0.500000000000     0.145850000000     0.670033333333     0          
T        Si     0.500000000000     0.163350000000     0.758766666667     0          
T        Si     0.500000000000     0.183600000000     0.924700000000     0          
T        Si     0.400000000000     0.156800000000     0.883133333333     0          
T        Si     0.400000000000     0.186000000000     0.800533333333     0          
T        Si     0.400000000000     0.250000000000     0.844300000000     0          
T        Si     0.500000000000     0.250000000000     0.898633333333     0          
T        Si     0.500000000000     0.354150000000     0.670033333333     0          
T        Si     0.500000000000     0.336650000000     0.758766666667     0          
T        Si     0.500000000000     0.316400000000     0.924700000000     0          
T        Si     0.400000000000     0.343200000000     0.883133333333     0          
T        Si     0.400000000000     0.314000000000     0.800533333333     0          
T        Si     0.400000000000     0.604150000000     0.329966666667     0          
T        Si     0.400000000000     0.586650000000     0.241233333333     0          
T        Si     0.400000000000     0.566400000000     0.075300000000     0          
T        Si     0.500000000000     0.593200000000     0.116866666667     0          
T        Si     0.500000000000     0.564000000000     0.199466666667     0          
T        Si     0.500000000000     0.500000000000     0.155700000000     0          
T        Si     0.400000000000     0.500000000000     0.101366666667     0          
T        Si     0.400000000000     0.895850000000     0.329966666667     0          
T        Si     0.400000000000     0.913350000000     0.241233333333     0          
T        Si     0.400000000000     0.933600000000     0.075300000000     0          
T        Si     0.500000000000     0.906800000000     0.116866666667     0          
T        Si     0.500000000000     0.936000000000     0.199466666667     0          
T        Si     0.500000000000     0.645850000000     0.003366666667     0          
T        Si     0.500000000000     0.663350000000     0.092100000000     0          
T        Si     0.500000000000     0.683600000000     0.258033333333     0          
T        Si     0.400000000000     0.656800000000     0.216466666667     0          
T        Si     0.400000000000     0.686000000000     0.133866666667     0          
T        Si     0.400000000000     0.750000000000     0.177633333333     0          
T        Si     0.500000000000     0.750000000000     0.231966666667     0          
T        Si     0.500000000000     0.854150000000     0.003366666667     0          
T        Si     0.500000000000     0.836650000000     0.092100000000     0          
T        Si     0.500000000000     0.816400000000     0.258033333333     0          
T        Si     0.400000000000     0.843200000000     0.216466666667     0          
T        Si     0.400000000000     0.814000000000     0.133866666667     0          
T        Si     0.400000000000     0.604150000000     0.663300000000     0          
T        Si     0.400000000000     0.586650000000     0.574566666667     0          
T        Si     0.400000000000     0.566400000000     0.408633333333     0          
T        Si     0.500000000000     0.593200000000     0.450200000000     0          
T        Si     0.500000000000     0.564000000000     0.532800000000     0          
T        Si     0.500000000000     0.500000000000     0.489033333333     0          
T        Si     0.400000000000     0.500000000000     0.434700000000     0          
T        Si     0.400000000000     0.895850000000     0.663300000000     0          
T        Si     0.400000000000     0.913350000000     0.574566666667     0          
T        Si     0.400000000000     0.933600000000     0.408633333333     0          
T        Si     0.500000000000     0.906800000000     0.450200000000     0          
T        Si     0.500000000000     0.936000000000     0.532800000000     0          
T        Si     0.500000000000     0.645850000000     0.336700000000     0          
T        Si     0.500000000000     0.663350000000     0.425433333333     0          
T        Si     0.500000000000     0.683600000000     0.591366666667     0          
T        Si     0.400000000000     0.656800000000     0.549800000000     0          
T        Si     0.400000000000     0.686000000000     0.467200000000     0          
T        Si     0.400000000000     0.750000000000     0.510966666667     0          
T        Si     0.500000000000     0.750000000000     0.565300000000     0          
T        Si     0.500000000000     0.854150000000     0.336700000000     0          
T        Si     0.500000000000     0.836650000000     0.425433333333     0          
T        Si     0.500000000000     0.816400000000     0.591366666667     0          
T        Si     0.400000000000     0.843200000000     0.549800000000     0          
T        Si     0.400000000000     0.814000000000     0.467200000000     0          
T        Si     0.400000000000     0.604150000000     0.996633333333     0          
T        Si     0.400000000000     0.586650000000     0.907900000000     0          
T        Si     0.400000000000     0.566400000000     0.741966666667     0          
T        Si     0.500000000000     0.593200000000     0.783533333333     0          
T        Si     0.500000000000     0.564000000000     0.866133333333     0          
T        Si     0.500000000000     0.500000000000     0.822366666667     0          
T        Si     0.400000000000     0.500000000000     0.768033333333     0          
T        Si     0.400000000000     0.895850000000     0.996633333333     0          
T        Si     0.400000000000     0.913350000000     0.907900000000     0          
T        Si     0.400000000000     0.933600000000     0.741966666667     0          
T        Si     0.500000000000     0.906800000000     0.783533333333     0          
T        Si     0.500000000000     0.936000000000     0.866133333333     0          
T        Si     0.500000000000     0.645850000000     0.670033333333     0          
T        Si     0.500000000000     0.663350000000     0.758766666667     0          
T        Si     0.500000000000     0.683600000000     0.924700000000     0          
T        Si     0.400000000000     0.656800000000     0.883133333333     0          
T        Si     0.400000000000     0.686000000000     0.800533333333     0          
T        Si     0.400000000000     0.750000000000     0.844300000000     0          
T        Si     0.500000000000     0.750000000000     0.898633333333     0          
T        Si     0.500000000000     0.854150000000     0.670033333333     0          
T        Si     0.500000000000     0.836650000000     0.758766666667     0          
T        Si     0.500000000000     0.816400000000     0.924700000000     0          
T        Si     0.400000000000     0.843200000000     0.883133333333     0          
T        Si     0.400000000000     0.814000000000     0.800533333333     0          
T        Si     0.600000000000     0.104150000000     0.329966666667     0          
T        Si     0.600000000000     0.086650000000     0.241233333333     0          
T        Si     0.600000000000     0.066400000000     0.075300000000     0          
T        Si     0.700000000000     0.093200000000     0.116866666667     0          
T        Si     0.700000000000     0.064000000000     0.199466666667     0          
T        Si     0.700000000000     0.000000000000     0.155700000000     0          
T        Si     0.600000000000     0.000000000000     0.101366666667     0          
T        Si     0.600000000000     0.395850000000     0.329966666667     0          
T        Si     0.600000000000     0.413350000000     0.241233333333     0          
T        Si     0.600000000000     0.433600000000     0.075300000000     0          
T        Si     0.700000000000     0.406800000000     0.116866666667     0          
T        Si     0.700000000000     0.436000000000     0.199466666667     0          
T        Si     0.700000000000     0.145850000000     0.003366666667     0          
T        Si     0.700000000000     0.163350000000     0.092100000000     0          
T        Si     0.700000000000     0.183600000000     0.258033333333     0          
T        Si     0.600000000000     0.156800000000     0.216466666667     0          
T        Si     0.600000000000     0.186000000000     0.133866666667     0          
T        Si     0.600000000000     0.250000000000     0.177633333333     0          
T        Si     0.700000000000     0.250000000000     0.231966666667     0          
T        Si     0.700000000000     0.354150000000     0.003366666667     0          
T        Si     0.700000000000     0.336650000000     0.092100000000     0          
T        Si     0.700000000000     0.316400000000     0.258033333333     0          
T        Si     0.600000000000     0.343200000000     0.216466666667     0          
T        Si     0.600000000000     0.314000000000     0.133866666667     0          
T        Si     0.600000000000     0.104150000000     0.663300000000     0          
T        Si     0.600000000000     0.086650000000     0.574566666667     0          
T        Si     0.600000000000     0.066400000000     0.408633333333     0          
T        Si     0.700000000000     0.093200000000     0.450200000000     0          
T        Si     0.700000000000     0.064000000000     0.532800000000     0          
T        Si     0.700000000000     0.000000000000     0.489033333333     0          
T        Si     0.600000000000     0.000000000000     0.434700000000     0          
T        Si     0.600000000000     0.395850000000     0.663300000000     0          
T        Si     0.600000000000     0.413350000000     0.574566666667     0          
T        Si     0.600000000000     0.433600000000     0.408633333333     0          
T        Si     0.700000000000     0.406800000000     0.450200000000     0          
T        Si     0.700000000000     0.436000000000     0.532800000000     0          
T        Si     0.700000000000     0.145850000000     0.336700000000     0          
T        Si     0.700000000000     0.163350000000     0.425433333333     0          
T        Si     0.700000000000     0.183600000000     0.591366666667     0          
T        Si     0.600000000000     0.156800000000     0.549800000000     0          
T        Si     0.600000000000     0.186000000000     0.467200000000     0          
T        Si     0.600000000000     0.250000000000     0.510966666667     0          
T        Si     0.700000000000     0.250000000000     0.565300000000     0          
T        Si     0.700000000000     0.354150000000     0.336700000000     0          
T        Si     0.700000000000     0.336650000000     0.425433333333     0          
T        Si     0.700000000000     0.316400000000     0.591366666667     0          
T        Si     0.600000000000     0.343200000000     0.549800000000     0          
T        Si     0.600000000000     0.314000000000     0.467200000000     0          
T        Si     0.600000000000     0.104150000000     0.996633333333     0          
T        Si     0.600000000000     0.086650000000     0.907900000000     0          
T        Si     0.600000000000     0.066400000000     0.741966666667     0          
T        Si     0.700000000000     0.093200000000     0.783533333333     0          
T        Si     0.700000000000     0.064000000000     0.866133333333     0          
T        Si     0.700000000000     0.000000000000     0.822366666667     0          
T        Si     0.600000000000     0.000000000000     0.768033333333     0          
T        Si     0.600000000000     0.395850000000     0.996633333333     0          
T        Si     0.600000000000     0.413350000000     0.907900000000     0          
T        Si     0.600000000000     0.433600000000     0.741966666667     0          
T        Si     0.700000000000     0.406800000000     0.783533333333     0          
T        Si     0.700000000000     0.436000000000     0.866133333333     0          
T        Si     0.700000000000     0.145850000000     0.670033333333     0          
T        Si     0.700000000000     0.163350000000     0.758766666667     0          
T        Si     0.700000000000     0.183600000000     0.924700000000     0          
T        Si     0.600000000000     0.156800000000     0.883133333333     0          
T        Si     0.600000000000     0.186000000000     0.800533333333     0          
T        Si     0.600000000000     0.250000000000     0.844300000000     0          
T        Si     0.700000000000     0.250000000000     0.898633333333     0          
T        Si     0.700000000000     0.354150000000     0.670033333333     0          
T        Si     0.700000000000     0.336650000000     0.758766666667     0          
T        Si     0.700000000000     0.316400000000     0.924700000000     0          
T        Si     0.600000000000     0.343200000000     0.883133333333     0          
T        Si     0.600000000000     0.314000000000     0.800533333333     0          
T        Si     0.600000000000     0.604150000000     0.329966666667     0          
T        Si     0.600000000000     0.586650000000     0.241233333333     0          
T        Si     0.600000000000     0.566400000000     0.075300000000     0          
T        Si     0.700000000000     0.593200000000     0.116866666667     0          
T        Si     0.700000000000     0.564000000000     0.199466666667     0          
T        Si     0.700000000000     0.500000000000     0.155700000000     0          
T        Si     0.600000000000     0.500000000000     0.101366666667     0          
T        Si     0.600000000000     0.895850000000     0.329966666667     0          
T        Si     0.600000000000     0.913350000000     0.241233333333     0          
T        Si     0.600000000000     0.933600000000     0.075300000000     0          
T        Si     0.700000000000     0.906800000000     0.116866666667     0          
T        Si     0.700000000000     0.936000000000     0.199466666667     0          
T        Si     0.700000000000     0.645850000000     0.003366666667     0          
T        Si     0.700000000000     0.663350000000     0.092100000000     0          
T        Si     0.700000000000     0.683600000000     0.258033333333     0          
T        Si     0.600000000000     0.656800000000     0.216466666667     0          
T        Si     0.600000000000     0.686000000000     0.133866666667     0          
T        Si     0.600000000000     0.750000000000     0.177633333333     0          
T        Si     0.700000000000     0.750000000000     0.231966666667     0          
T        Si     0.700000000000     0.854150000000     0.003366666667     0          
T        Si     0.700000000000     0.836650000000     0.092100000000     0          
T        Si     0.700000000000     0.816400000000     0.258033333333     0          
T        Si     0.600000000000     0.843200000000     0.216466666667     0          
T        Si     0.600000000000     0.814000000000     0.133866666667     0          
T        Si     0.600000000000     0.604150000000     0.663300000000     0          
T        Si     0.600000000000     0.586650000000     0.574566666667     0          
T        Si     0.600000000000     0.566400000000     0.408633333333     0          
T        Si     0.700000000000     0.593200000000     0.450200000000     0          
T        Si     0.700000000000     0.564000000000     0.532800000000     0          
T        Si     0.700000000000     0.500000000000     0.489033333333     0          
T        Si     0.600000000000     0.500000000000     0.434700000000     0          
T        Si     0.600000000000     0.895850000000     0.663300000000     0          
T        Si     0.600000000000     0.913350000000     0.574566666667     0          
T        Si     0.600000000000     0.933600000000     0.408633333333     0          
T        Si     0.700000000000     0.906800000000     0.450200000000     0          
T        Si     0.700000000000     0.936000000000     0.532800000000     0          
T        Si     0.700000000000     0.645850000000     0.336700000000     0          
T        Si     0.700000000000     0.663350000000     0.425433333333     0          
T        Si     0.700000000000     0.683600000000     0.591366666667     0          
T        Si     0.600000000000     0.656800000000     0.549800000000     0          
T        Si     0.600000000000     0.686000000000     0.467200000000     0          
T        Si     0.600000000000     0.750000000000     0.510966666667     0          
T        Si     0.700000000000     0.750000000000     0.565300000000     0          
T        Si     0.700000000000     0.854150000000     0.336700000000     0          
T        Si     0.700000000000     0.836650000000     0.425433333333     0          
T        Si     0.700000000000     0.816400000000     0.591366666667     0          
T        Si     0.600000000000     0.843200000000     0.549800000000     0          
T        Si     0.600000000000     0.814000000000     0.467200000000     0          
T        Si     0.600000000000     0.604150000000     0.996633333333     0          
T        Si     0.600000000000     0.586650000000     0.907900000000     0          
T        Si     0.600000000000     0.566400000000     0.741966666667     0          
T        Si     0.700000000000     0.593200000000     0.783533333333     0          
T        Si     0.700000000000     0.564000000000     0.866133333333     0          
T        Si     0.700000000000     0.500000000000     0.822366666667     0          
T        Si     0.600000000000     0.500000000000     0.768033333333     0          
T        Si     0.600000000000     0.895850000000     0.996633333333     0          
T        Si     0.600000000000     0.913350000000     0.907900000000     0          
T        Si     0.600000000000     0.933600000000     0.741966666667     0          
T        Si     0.700000000000     0.906800000000     0.783533333333     0          
T        Si     0.700000000000     0.936000000000     0.866133333333     0          
T        Si     0.700000000000     0.645850000000     0.670033333333     0          
T        Si     0.700000000000     0.663350000000     0.758766666667     0          
T        Si     0.700000000000     0.683600000000     0.924700000000     0          
T        Si     0.600000000000     0.656800000000     0.883133333333     0          
T        Si     0.600000000000     0.686000000000     0.800533333333     0          
T        Si     0.600000000000     0.750000000000     0.844300000000     0          
T        Si     0.700000000000     0.750000000000     0.898633333333     0          
T        Si     0.700000000000     0.854150000000     0.670033333333     0          
T        Si     0.700000000000     0.836650000000     0.758766666667     0          
T        Si     0.700000000000     0.816400000000     0.924700000000     0          
T        Si     0.600000000000     0.843200000000     0.883133333333     0          
T        Si     0.600000000000     0.814000000000     0.800533333333     0          
T        Si     0.800000000000     0.104150000000     0.329966666667     0          
T        Si     0.800000000000     0.086650000000     0.241233333333     0          
T        Si     0.800000000000     0.066400000000     0.075300000000     0          
T        Si     0.900000000000     0.093200000000     0.116866666667     0          
T        Si     0.900000000000     0.064000000000     0.199466666667     0          
T        Si     0.900000000000     0.000000000000     0.155700000000     0          
T        Si     0.800000000000     0.000000000000     0.101366666667     0          
T        Si     0.800000000000     0.395850000000     0.329966666667     0          
T        Si     0.800000000000     0.413350000000     0.241233333333     0          
T        Si     0.800000000000     0.433600000000     0.075300000000     0          
T        Si     0.900000000000     0.406800000000     0.116866666667     0          
T        Si     0.900000000000     0.436000000000     0.199466666667     0          
T        Si     0.900000000000     0.145850000000     0.003366666667     0          
T        Si     0.900000000000     0.163350000000     0.092100000000     0          
T        Si     0.900000000000     0.183600000000     0.258033333333     0          
T        Si     0.800000000000     0.156800000000     0.216466666667     0          
T        Si     0.800000000000     0.186000000000     0.133866666667     0          
T        Si     0.800000000000     0.250000000000     0.177633333333     0          
T        Si     0.900000000000     0.250000000000     0.231966666667     0          
T        Si     0.900000000000     0.354150000000     0.003366666667     0          
T        Si     0.900000000000     0.336650000000     0.092100000000     0          
T        Si     0.900000000000     0.316400000000     0.258033333333     0          
T        Si     0.800000000000     0.343200000000     0.216466666667     0          
T        Si     0.800000000000     0.314000000000     0.133866666667     0          
T        Si     0.800000000000     0.104150000000     0.663300000000     0          
T        Si     0.800000000000     0.086650000000     0.574566666667     0          
T        Si     0.800000000000     0.066400000000     0.408633333333     0          
T        Si     0.900000000000     0.093200000000     0.450200000000     0          
T        Si     0.900000000000     0.064000000000     0.532800000000     0          
T        Si     0.900000000000     0.000000000000     0.489033333333     0          
T        Si     0.800000000000     0.000000000000     0.434700000000     0          
T        Si     0.800000000000     0.395850000000     0.663300000000     0          
T        Si     0.800000000000     0.413350000000     0.574566666667     0          
T        Si     0.800000000000     0.433600000000     0.408633333333     0          
T        Si     0.900000000000     0.406800000000     0.450200000000     0          
T        Si     0.900000000000     0.436000000000     0.532800000000     0          
T        Si     0.900000000000     0.145850000000     0.336700000000     0          
T        Si     0.900000000000     0.163350000000     0.425433333333     0          
T        Si     0.900000000000     0.183600000000     0.591366666667     0          
T        Si     0.800000000000     0.156800000000     0.549800000000     0          
T        Si     0.800000000000     0.186000000000     0.467200000000     0          
T        Si     0.800000000000     0.250000000000     0.510966666667     0          
T        Si     0.900000000000     0.250000000000     0.565300000000     0          
T        Si     0.900000000000     0.354150000000     0.336700000000     0          
T        Si     0.900000000000     0.336650000000     0.425433333333     0          
T        Si     0.900000000000     0.316400000000     0.591366666667     0          
T        Si     0.800000000000     0.343200000000     0.549800000000     0          
T        Si     0.800000000000     0.314000000000     0.467200000000     0          
T        Si     0.800000000000     0.104150000000     0.996633333333     0          
T        Si     0.800000000000     0.086650000000     0.907900000000     0          
T        Si     0.800000000000     0.066400000000     0.741966666667     0          
T        Si     0.900000000000     0.093200000000     0.783533333333     0          
T        Si     0.900000000000     0.064000000000     0.866133333333     0          
T        Si     0.900000000000     0.000000000000     0.822366666667     0          
T        Si     0.800000000000     0.000000000000     0.768033333333     0          
T        Si     0.800000000000     0.395850000000     0.996633333333     0          
T        Si     0.800000000000     0.413350000000     0.907900000000     0          
T        Si     0.800000000000     0.433600000000     0.741966666667     0          
T        Si     0.900000000000     0.406800000000     0.783533333333     0          
T        Si     0.900000000000     0.436000000000     0.866133333333     0          
T        Si     0.900000000000     0.145850000000     0.670033333333     0          
T        Si     0.900000000000     0.163350000000     0.758766666667     0          
T        Si     0.900000000000     0.183600000000     0.924700000000     0          
T        Si     0.800000000000     0.156800000000     0.883133333333     0          
T        Si     0.800000000000     0.186000000000     0.800533333333     0          
T        Si     0.800000000000     0.250000000000     0.844300000000     0          
T        Si     0.900000000000     0.250000000000     0.898633333333     0          
T        Si     0.900000000000     0.354150000000     0.670033333333     0          
T        Si     0.900000000000     0.336650000000     0.758766666667     0          
T        Si     0.900000000000     0.316400000000     0.924700000000     0          
T        Si     0.800000000000     0.343200000000     0.883133333333     0          
T        Si     0.800000000000     0.314000000000     0.800533333333     0          
T        Si     0.800000000000     0.604150000000     0.329966666667     0          
T        Si     0.800000000000     0.586650000000     0.241233333333     0          
T        Si     0.800000000000     0.566400000000     0.075300000000     0          
T        Si     0.900000000000     0.593200000000     0.116866666667     0          
T        Si     0.900000000000     0.564000000000     0.199466666667     0          
T        Si     0.900000000000     0.500000000000     0.155700000000     0          
T        Si     0.800000000000     0.500000000000     0.101366666667     0          
T        Si     0.800000000000     0.895850000000     0.329966666667     0          
T        Si     0.800000000000     0.913350000000     0.241233333333     0          
T        Si     0.800000000000     0.933600000000     0.075300000000     0          
T        Si     0.900000000000     0.906800000000     0.116866666667     0          
T        Si     0.900000000000     0.936000000000     0.199466666667     0          
T        Si     0.900000000000     0.645850000000     0.003366666667     0          
T        Si     0.900000000000     0.663350000000     0.092100000000     0          
T        Si     0.900000000000     0.683600000000     0.258033333333     0          
T        Si     0.800000000000     0.656800000000     0.216466666667     0          
T        Si     0.800000000000     0.686000000000     0.133866666667     0          
T        Si     0.800000000000     0.750000000000     0.177633333333     0          
T        Si     0.900000000000     0.750000000000     0.231966666667     0          
T        Si     0.900000000000     0.854150000000     0.003366666667     0          
T        Si     0.900000000000     0.836650000000     0.092100000000     0          
T        Si     0.900000000000     0.816400000000     0.258033333333     0          
T        Si     0.800000000000     0.843200000000     0.216466666667     0          
T        Si     0.800000000000     0.814000000000     0.133866666667     0          
T        Si     0.800000000000     0.604150000000     0.663300000000     0          
T        Si     0.800000000000     0.586650000000     0.574566666667     0          
T        Si     0.800000000000     0.566400000000     0.408633333333     0          
T        Si     0.900000000000     0.593200000000     0.450200000000     0          
T        Si     0.900000000000     0.564000000000     0.532800000000     0          
T        Si     0.900000000000     0.500000000000     0.489033333333     0          
T        Si     0.800000000000     0.500000000000     0.434700000000     0          
T        Si     0.800000000000     0.895850000000     0.663300000000     0          
T        Si     0.800000000000     0.913350000000     0.574566666667     0          
T        Si     0.800000000000     0.933600000000     0.408633333333     0          
T        Si     0.900000000000     0.906800000000     0.450200000000     0          
T        Si     0.900000000000     0.936000000000     0.532800000000     0          
T        Si     0.900000000000     0.645850000000     0.336700000000     0          
T        Si     0.900000000000     0.663350000000     0.425433333333     0          
T        Si     0.900000000000     0.683600000000     0.591366666667     0          
T        Si     0.800000000000     0.656800000000     0.549800000000     0          
T        Si     0.800000000000     0.686000000000     0.467200000000     0          
T        Si     0.800000000000     0.750000000000     0.510966666667     0          
T        Si     0.900000000000     0.750000000000     0.565300000000     0          
T        Si     0.900000000000     0.854150000000     0.336700000000     0          
T        Si     0.900000000000     0.836650000000     0.425433333333     0          
T        Si     0.900000000000     0.816400000000     0.591366666667     0          
T        Si     0.800000000000     0.843200000000     0.549800000000     0          
T        Si     0.800000000000     0.814000000000     0.467200000000     0          
T        Si     0.800000000000     0.604150000000     0.996633333333     0          
T        Si     0.800000000000     0.586650000000     0.907900000000     0          
T        Si     0.800000000000     0.566400000000     0.741966666667     0          
T        Si     0.900000000000     0.593200000000     0.783533333333     0          
T        Si     0.900000000000     0.564000000000     0.866133333333     0          
T        Si     0.900000000000     0.500000000000     0.822366666667     0          
T        Si     0.800000000000     0.500000000000     0.768033333333     0          
T        Si     0.800000000000     0.895850000000     0.996633333333     0          
T        Si     0.800000000000     0.913350000000     0.907900000000     0          
T        Si     0.800000000000     0.933600000000     0.741966666667     0          
T        Si     0.900000000000     0.906800000000     0.783533333333     0          
T        Si     0.900000000000     0.936000000000     0.866133333333     0          
T        Si     0.900000000000     0.645850000000     0.670033333333     0          
T        Si     0.900000000000     0.663350000000     0.758766666667     0          
T        Si     0.900000000000     0.683600000000     0.924700000000     0          
T        Si     0.800000000000     0.656800000000     0.883133333333     0          
T        Si     0.800000000000     0.686000000000     0.800533333333     0          
T        Si     0.800000000000     0.750000000000     0.844300000000     0          
T        Si     0.900000000000     0.750000000000     0.898633333333     0          
T        Si     0.900000000000     0.854150000000     0.670033333333     0          
T        Si     0.900000000000     0.836650000000     0.758766666667     0          
T        Si     0.900000000000     0.816400000000     0.924700000000     0          
T        Si     0.800000000000     0.843200000000     0.883133333333     0          
T        Si     0.800000000000     0.814000000000     0.800533333333     0          
O        O      0.000000000000     0.086950000000     0.288366666667     0          
O        O      0.150000000000     0.125000000000     0.000000000000     0          
O        O      0.000000000000     0.079350000000     0.031266666667     0          
O        O      0.150000000000     0.069250000000     0.225833333333     0          
O        O      0.000000000000     0.120900000000     0.225000000000     0          
O        O      0.000000000000     0.029850000000     0.074166666667     0          
O        O      0.150000000000     0.078050000000     0.097933333333     0          
O        O      0.100000000000     0.087550000000     0.163433333333     0          
O        O      0.100000000000     0.029800000000     0.182933333333     0          
O        O      0.050000000000     0.000000000000     0.128533333333     0          
O        O      0.000000000000     0.413050000000     0.288366666667     0          
O        O      0.050000000000     0.375000000000     0.000000000000     0          
O        O      0.000000000000     0.420650000000     0.031266666667     0          
O        O      0.050000000000     0.430750000000     0.225833333333     0          
O        O      0.000000000000     0.379100000000     0.225000000000     0          
O        O      0.000000000000     0.470150000000     0.074166666667     0          
O        O      0.050000000000     0.421950000000     0.097933333333     0          
O        O      0.100000000000     0.412450000000     0.163433333333     0          
O        O      0.100000000000     0.470200000000     0.182933333333     0          
O        O      0.150000000000     0.000000000000     0.128533333333     0          
O        O      0.100000000000     0.163050000000     0.044966666667     0          
O        O      0.050000000000     0.125000000000     0.000000000000     0          
O        O      0.100000000000     0.170650000000     0.302066666667     0          
O        O      0.050000000000     0.180750000000     0.107500000000     0          
O        O      0.100000000000     0.129100000000     0.108333333333     0          
O        O      0.100000000000     0.220150000000     0.259166666667     0          
O        O      0.050000000000     0.171950000000     0.235400000000     0          
O        O      0.000000000000     0.162450000000     0.169900000000     0          
O        O      0.000000000000     0.220200000000     0.150400000000     0          
O        O      0.150000000000     0.250000000000     0.204800000000     0          
O        O      0.100000000000     0.336950000000     0.044966666667     0          
O        O      0.150000000000     0.375000000000     0.000000000000     0          
O        O      0.100000000000     0.329350000000     0.302066666667     0          
O        O      0.150000000000     0.319250000000     0.107500000000     0          
O        O      0.100000000000     0.370900000000     0.108333333333     0          
O        O      0.100000000000     0.279850000000     0.259166666667     0          
O        O      0.150000000000     0.328050000000     0.235400000000     0          
O        O      0.000000000000     0.337550000000     0.169900000000     0          
O        O      0.000000000000     0.279800000000     0.150400000000     0          
O        O      0.050000000000     0.250000000000     0.204800000000     0          
O        O      0.150000000000     0.180750000000     0.107500000000     0          
O        O      0.150000000000     0.171950000000     0.235400000000     0          
O        O      0.050000000000     0.319250000000     0.107500000000     0          
O        O      0.050000000000     0.328050000000     0.235400000000     0          
O        O      0.050000000000     0.069250000000     0.225833333333     0          
O        O      0.050000000000     0.078050000000     0.097933333333     0          
O        O      0.150000000000     0.430750000000     0.225833333333     0          
O        O      0.150000000000     0.421950000000     0.097933333333     0          
O        O      0.000000000000     0.086950000000     0.621700000000     0          
O        O      0.150000000000     0.125000000000     0.333333333333     0          
O        O      0.000000000000     0.079350000000     0.364600000000     0          
O        O      0.150000000000     0.069250000000     0.559166666667     0          
O        O      0.000000000000     0.120900000000     0.558333333333     0          
O        O      0.000000000000     0.029850000000     0.407500000000     0          
O        O      0.150000000000     0.078050000000     0.431266666667     0          
O        O      0.100000000000     0.087550000000     0.496766666667     0          
O        O      0.100000000000     0.029800000000     0.516266666667     0          
O        O      0.050000000000     0.000000000000     0.461866666667     0          
O        O      0.000000000000     0.413050000000     0.621700000000     0          
O        O      0.050000000000     0.375000000000     0.333333333333     0          
O        O      0.000000000000     0.420650000000     0.364600000000     0          
O        O      0.050000000000     0.430750000000     0.559166666667     0          
O        O      0.000000000000     0.379100000000     0.558333333333     0          
O        O      0.000000000000     0.470150000000     0.407500000000     0          
O        O      0.050000000000     0.421950000000     0.431266666667     0          
O        O      0.100000000000     0.412450000000     0.496766666667     0          
O        O      0.100000000000     0.470200000000     0.516266666667     0          
O        O      0.150000000000     0.000000000000     0.461866666667     0          
O        O      0.100000000000     0.163050000000     0.378300000000     0          
O        O      0.050000000000     0.125000000000     0.333333333333     0          
O        O      0.100000000000     0.170650000000     0.635400000000     0          
O        O      0.050000000000     0.180750000000     0.440833333333     0          
O        O      0.100000000000     0.129100000000     0.441666666667     0          
O        O      0.100000000000     0.220150000000     0.592500000000     0          
O        O      0.050000000000     0.171950000000     0.568733333333     0          
O        O      0.000000000000     0.162450000000     0.503233333333     0          
O        O      0.000000000000     0.220200000000     0.483733333333     0          
O        O      0.150000000000     0.250000000000     0.538133333333     0          
O        O      0.100000000000     0.336950000000     0.378300000000     0          
O        O      0.150000000000     0.375000000000     0.333333333333     0          
O        O      0.100000000000     0.329350000000     0.635400000000     0          
O        O      0.150000000000     0.319250000000     0.440833333333     0          
O        O      0.100000000000     0.370900000000     0.441666666667     0          
O        O      0.100000000000     0.279850000000     0.592500000000     0          
O        O      0.150000000000     0.328050000000     0.568733333333     0          
O        O      0.000000000000     0.337550000000     0.503233333333     0          
O        O      0.000000000000     0.279800000000     0.483733333333     0          
O        O      0.050000000000     0.250000000000     0.538133333333     0          
O        O      0.150000000000     0.180750000000     0.440833333333     0          
O        O      0.150000000000     0.171950000000     0.568733333333     0          
O        O      0.050000000000     0.319250000000     0.440833333333     0          
O        O      0.050000000000     0.328050000000     0.568733333333     0          
O        O      0.050000000000     0.069250000000     0.559166666667     0          
O        O      0.050000000000     0.078050000000     0.431266666667     0          
O        O      0.150000000000     0.430750000000     0.559166666667     0          
O        O      0.150000000000     0.421950000000     0.431266666667     0          
O        O      0.000000000000     0.086950000000     0.955033333333     0          
O        O      0.150000000000     0.125000000000     0.666666666667     0          
O        O      0.000000000000     0.079350000000     0.697933333333     0          
O        O      0.150000000000     0.069250000000     0.892500000000     0          
O        O      0.000000000000     0.120900000000     0.891666666667     0          
O        O      0.000000000000     0.029850000000     0.740833333333     0          
O        O      0.150000000000     0.078050000000     0.764600000000     0          
O        O      0.100000000000     0.087550000000     0.830100000000     0          
O        O      0.100000000000     0.029800000000     0.849600000000     0          
O        O      0.050000000000     0.000000000000     0.795200000000     0          
O        O      0.000000000000     0.413050000000     0.955033333333     0          
O        O      0.050000000000     0.375000000000     0.666666666667     0          
O        O      0.000000000000     0.420650000000     0.697933333333     0          
O        O      0.050000000000     0.430750000000     0.892500000000     0          
O        O      0.000000000000     0.379100000000     0.891666666667     0          
O        O      0.000000000000     0.470150000000     0.740833333333     0          
O        O      0.050000000000     0.421950000000     0.764600000000     0          
O        O      0.100000000000     0.412450000000     0.830100000000     0          
O        O      0.100000000000     0.470200000000     0.849600000000     0          
O        O      0.150000000000     0.000000000000     0.795200000000     0          
O        O      0.100000000000     0.163050000000     0.711633333333     0          
O        O      0.050000000000     0.125000000000     0.666666666667     0          
O        O      0.100000000000     0.170650000000     0.968733333333     0          
O        O      0.050000000000     0.180750000000     0.774166666667     0          
O        O      0.100000000000     0.129100000000     0.775000000000     0          
O        O      0.100000000000     0.220150000000     0.925833333333     0          
O        O      0.050000000000     0.171950000000     0.902066666667     0          
O        O      0.000000000000     0.162450000000     0.836566666667     0          
O        O      0.000000000000     0.220200000000     0.817066666667     0          
O        O      0.150000000000     0.250000000000     0.871466666667     0          
O        O      0.100000000000     0.336950000000     0.711633333333     0          
O        O      0.150000000000     0.375000000000     0.666666666667     0          
O        O      0.100000000000     0.329350000000     0.968733333333     0          
O        O      0.150000000000     0.319250000000     0.774166666667     0          
O        O      0.100000000000     0.370900000000     0.775000000000     0          
O        O      0.100000000000     0.279850000000     0.925833333333     0          
O        O      0.150000000000     0.328050000000     0.902066666667     0          
O        O      0.000000000000     0.337550000000     0.836566666667     0          
O        O      0.000000000000     0.279800000000     0.817066666667     0          
O        O      0.050000000000     0.250000000000     0.871466666667     0          
O        O      0.150000000000     0.180750000000     0.774166666667     0          
O        O      0.150000000000     0.171950000000     0.902066666667     0          
O        O      0.050000000000     0.319250000000     0.774166666667     0          
O        O      0.050000000000     0.328050000000     0.902066666667     0          
O        O      0.050000000000     0.069250000000     0.892500000000     0          
O        O      0.050000000000     0.078050000000     0.764600000000     0          
O        O      0.150000000000     0.430750000000     0.892500000000     0          
O        O      0.150000000000     0.421950000000     0.764600000000     0          
O        O      0.000000000000     0.586950000000     0.288366666667     0          
O        O      0.150000000000     0.625000000000     0.000000000000     0          
O        O      0.000000000000     0.579350000000     0.031266666667     0          
O        O      0.150000000000     0.569250000000     0.225833333333     0          
O        O      0.000000000000     0.620900000000     0.225000000000     0          
O        O      0.000000000000     0.529850000000     0.074166666667     0          
O        O      0.150000000000     0.578050000000     0.097933333333     0          
O        O      0.100000000000     0.587550000000     0.163433333333     0          
O        O      0.100000000000     0.529800000000     0.182933333333     0          
O        O      0.050000000000     0.500000000000     0.128533333333     0          
O        O      0.000000000000     0.913050000000     0.288366666667     0          
O        O      0.050000000000     0.875000000000     0.000000000000     0          
O        O      0.000000000000     0.920650000000     0.031266666667     0          
O        O      0.050000000000     0.930750000000     0.225833333333     0          
O        O      0.000000000000     0.879100000000     0.225000000000     0          
O        O      0.000000000000     0.970150000000     0.074166666667     0          
O        O      0.050000000000     0.921950000000     0.097933333333     0          
O        O      0.100000000000     0.912450000000     0.163433333333     0          
O        O      0.100000000000     0.970200000000     0.182933333333     0          
O        O      0.150000000000     0.500000000000     0.128533333333     0          
O        O      0.100000000000     0.663050000000     0.044966666667     0          
O        O      0.050000000000     0.625000000000     0.000000000000     0          
O        O      0.100000000000     0.670650000000     0.302066666667     0          
O        O      0.050000000000     0.680750000000     0.107500000000     0          
O        O      0.100000000000     0.629100000000     0.108333333333     0          
O        O      0.100000000000     0.720150000000     0.259166666667     0          
O        O      0.050000000000     0.671950000000     0.235400000000     0          
O        O      0.000000000000     0.662450000000     0.169900000000     0          
O        O      0.000000000000     0.720200000000     0.150400000000     0          
O        O      0.150000000000     0.750000000000     0.204800000000     0          
O        O      0.100000000000     0.836950000000     0.044966666667     0          
O        O      0.150000000000     0.875000000000     0.000000000000     0          
O        O      0.100000000000     0.829350000000     0.302066666667     0          
O        O      0.150000000000     0.819250000000     0.107500000000     0          
O        O      0.100000000000     0.870900000000     0.108333333333     0          
O        O      0.100000000000     0.779850000000     0.259166666667     0          
O        O      0.150000000000     0.828050000000     0.235400000000     0          
O        O      0.000000000000     0.837550000000     0.169900000000     0          
O        O      0.000000000000     0.779800000000     0.150400000000     0          
O        O      0.050000000000     0.750000000000     0.204800000000     0          
O        O      0.150000000000     0.680750000000     0.107500000000     0          
O        O      0.150000000000     0.671950000000     0.235400000000     0          
O        O      0.050000000000     0.819250000000     0.107500000000     0          
O        O      0.050000000000     0.828050000000     0.235400000000     0          
O        O      0.050000000000     0.569250000000     0.225833333333     0          
O        O      0.050000000000     0.578050000000     0.097933333333     0          
O        O      0.150000000000     0.930750000000     0.225833333333     0          
O        O      0.150000000000     0.921950000000     0.097933333333     0          
O        O      0.000000000000     0.586950000000     0.621700000000     0          
O        O      0.150000000000     0.625000000000     0.333333333333     0          
O        O      0.000000000000     0.579350000000     0.364600000000     0          
O        O      0.150000000000     0.569250000000     0.559166666667     0          
O        O      0.000000000000     0.620900000000     0.558333333333     0          
O        O      0.000000000000     0.529850000000     0.407500000000     0          
O        O      0.150000000000     0.578050000000     0.431266666667     0          
O        O      0.100000000000     0.587550000000     0.496766666667     0          
O        O      0.100000000000     0.529800000000     0.516266666667     0          
O        O      0.050000000000     0.500000000000     0.461866666667     0          
O        O      0.000000000000     0.913050000000     0.621700000000     0          
O        O      0.050000000000     0.875000000000     0.333333333333     0          
O        O      0.000000000000     0.920650000000     0.364600000000     0          
O        O      0.050000000000     0.930750000000     0.559166666667     0          
O        O      0.000000000000     0.879100000000     0.558333333333     0          
O        O      0.000000000000     0.970150000000     0.407500000000     0          
O        O      0.050000000000     0.921950000000     0.431266666667     0          
O        O      0.100000000000     0.912450000000     0.496766666667     0          
O        O      0.100000000000     0.970200000000     0.516266666667     0          
O        O      0.150000000000     0.500000000000     0.461866666667     0          
O        O      0.100000000000     0.663050000000     0.378300000000     0          
O        O      0.050000000000     0.625000000000     0.333333333333     0          
O        O      0.100000000000     0.670650000000     0.635400000000     0          
O        O      0.050000000000     0.680750000000     0.440833333333     0          
O        O      0.100000000000     0.629100000000     0.441666666667     0          
O        O      0.100000000000     0.720150000000     0.592500000000     0          
O        O      0.050000000000     0.671950000000     0.568733333333     0          
O        O      0.000000000000     0.662450000000     0.503233333333     0          
O        O      0.000000000000     0.720200000000     0.483733333333     0          
O        O      0.150000000000     0.750000000000     0.538133333333     0          
O        O      0.100000000000     0.836950000000     0.378300000000     0          
O        O      0.150000000000     0.875000000000     0.333333333333     0          
O        O      0.100000000000     0.829350000000     0.635400000000     0          
O        O      0.150000000000     0.819250000000     0.440833333333     0          
O        O      0.100000000000     0.870900000000     0.441666666667     0          
O        O      0.100000000000     0.779850000000     0.592500000000     0          
O        O      0.150000000000     0.828050000000     0.568733333333     0          
O        O      0.000000000000     0.837550000000     0.503233333333     0          
O        O      0.000000000000     0.779800000000     0.483733333333     0          
O        O      0.050000000000     0.750000000000     0.538133333333     0          
O        O      0.150000000000     0.680750000000     0.440833333333     0          
O        O      0.150000000000     0.671950000000     0.568733333333     0          
O        O      0.050000000000     0.819250000000     0.440833333333     0          
O        O      0.050000000000     0.828050000000     0.568733333333     0          
O        O      0.050000000000     0.569250000000     0.559166666667     0          
O        O      0.050000000000     0.578050000000     0.431266666667     0          
O        O      0.150000000000     0.930750000000     0.559166666667     0          
O        O      0.150000000000     0.921950000000     0.431266666667     0          
O        O      0.000000000000     0.586950000000     0.955033333333     0          
O        O      0.150000000000     0.625000000000     0.666666666667     0          
O        O      0.000000000000     0.579350000000     0.697933333333     0          
O        O      0.150000000000     0.569250000000     0.892500000000     0          
O        O      0.000000000000     0.620900000000     0.891666666667     0          
O        O      0.000000000000     0.529850000000     0.740833333333     0          
O        O      0.150000000000     0.578050000000     0.764600000000     0          
O        O      0.100000000000     0.587550000000     0.830100000000     0          
O        O      0.100000000000     0.529800000000     0.849600000000     0          
O        O      0.050000000000     0.500000000000     0.795200000000     0          
O        O      0.000000000000     0.913050000000     0.955033333333     0          
O        O      0.050000000000     0.875000000000     0.666666666667     0          
O        O      0.000000000000     0.920650000000     0.697933333333     0          
O        O      0.050000000000     0.930750000000     0.892500000000     0          
O        O      0.000000000000     0.879100000000     0.891666666667     0          
O        O      0.000000000000     0.970150000000     0.740833333333     0          
O        O      0.050000000000     0.921950000000     0.764600000000     0          
O        O      0.100000000000     0.912450000000     0.830100000000     0          
O        O      0.100000000000     0.970200000000     0.849600000000     0          
O        O      0.150000000000     0.500000000000     0.795200000000     0          
O        O      0.100000000000     0.663050000000     0.711633333333     0          
O        O      0.050000000000     0.625000000000     0.666666666667     0          
O        O      0.100000000000     0.670650000000     0.968733333333     0          
O        O      0.050000000000     0.680750000000     0.774166666667     0          
O        O      0.100000000000     0.629100000000     0.775000000000     0          
O        O      0.100000000000     0.720150000000     0.925833333333     0          
O        O      0.050000000000     0.671950000000     0.902066666667     0          
O        O      0.000000000000     0.662450000000     0.836566666667     0          
O        O      0.000000000000     0.720200000000     0.817066666667     0          
O        O      0.150000000000     0.750000000000     0.871466666667     0          
O        O      0.100000000000     0.836950000000     0.711633333333     0          
O        O      0.150000000000     0.875000000000     0.666666666667     0          
O        O      0.100000000000     0.829350000000     0.968733333333     0          
O        O      0.150000000000     0.819250000000     0.774166666667     0          
O        O      0.100000000000     0.870900000000     0.775000000000     0          
O        O      0.100000000000     0.779850000000     0.925833333333     0          
O        O      0.150000000000     0.828050000000     0.902066666667     0          
O        O      0.000000000000     0.837550000000     0.836566666667     0          
O        O      0.000000000000     0.779800000000     0.817066666667     0          
O        O      0.050000000000     0.750000000000     0.871466666667     0          
O        O      0.150000000000     0.680750000000     0.774166666667     0          
O        O      0.150000000000     0.671950000000     0.902066666667     0          
O        O      0.050000000000     0.819250000000     0.774166666667     0          
O        O      0.050000000000     0.828050000000     0.902066666667     0          
O        O      0.050000000000     0.569250000000     0.892500000000     0          
O        O      0.050000000000     0.578050000000     0.764600000000     0          
O        O      0.150000000000     0.930750000000     0.892500000000     0          
O        O      0.150000000000     0.921950000000     0.764600000000     0          
O        O      0.200000000000     0.086950000000     0.288366666667     0          
O        O      0.350000000000     0.125000000000     0.000000000000     0          
O        O      0.200000000000     0.079350000000     0.031266666667     0          
O        O      0.350000000000     0.069250000000     0.225833333333     0          
O        O      0.200000000000     0.120900000000     0.225000000000     0          
O        O      0.200000000000     0.029850000000     0.074166666667     0          
O        O      0.350000000000     0.078050000000     0.097933333333     0          
O        O      0.300000000000     0.087550000000     0.163433333333     0          
O        O      0.300000000000     0.029800000000     0.182933333333     0          
O        O      0.250000000000     0.000000000000     0.128533333333     0          
O        O      0.200000000000     0.413050000000     0.288366666667     0          
O        O      0.250000000000     0.375000000000     0.000000000000     0          
O        O      0.200000000000     0.420650000000     0.031266666667     0          
O        O      0.250000000000     0.430750000000     0.225833333333     0          
O        O      0.200000000000     0.379100000000     0.225000000000     0          
O        O      0.200000000000     0.470150000000     0.074166666667     0          
O        O      0.250000000000     0.421950000000     0.097933333333     0          
O        O      0.300000000000     0.412450000000     0.163433333333     0          
O        O      0.300000000000     0.470200000000     0.182933333333     0          
O        O      0.350000000000     0.000000000000     0.128533333333     0          
O        O      0.300000000000     0.163050000000     0.044966666667     0          
O        O      0.250000000000     0.125000000000     0.000000000000     0          
O        O      0.300000000000     0.170650000000     0.302066666667     0          
O        O      0.250000000000     0.180750000000     0.107500000000     0          
O        O      0.300000000000     0.129100000000     0.108333333333     0          
O        O      0.300000000000     0.220150000000     0.259166666667     0          
O        O      0.250000000000     0.171950000000     0.235400000000     0          
O        O      0.200000000000     0.162450000000     0.169900000000     0          
O        O      0.200000000000     0.220200000000     0.150400000000     0          
O        O      0.350000000000     0.250000000000     0.204800000000     0          
O        O      0.300000000000     0.336950000000     0.044966666667     0          
O        O      0.350000000000     0.375000000000     0.000000000000     0          
O        O      0.300000000000     0.329350000000     0.302066666667     0          
O        O      0.350000000000     0.319250000000     0.107500000000     0          
O        O      0.300000000000     0.370900000000     0.108333333333     0          
O        O      0.300000000000     0.279850000000     0.259166666667     0          
O        O      0.350000000000     0.328050000000     0.235400000000     0          
O        O      0.200000000000     0.337550000000     0.169900000000     0          
O        O      0.200000000000     0.279800000000     0.150400000000     0          
O        O      0.250000000000     0.250000000000     0.204800000000     0          
O        O      0.350000000000     0.180750000000     0.107500000000     0          
O        O      0.350000000000     0.171950000000     0.235400000000     0          
O        O      0.250000000000     0.319250000000     0.107500000000     0          
O        O      0.250000000000     0.328050000000     0.235400000000     0          
O        O      0.250000000000     0.069250000000     0.225833333333     0          
O        O      0.250000000000     0.078050000000     0.097933333333     0          
O        O      0.350000000000     0.430750000000     0.225833333333     0          
O        O      0.350000000000     0.421950000000     0.097933333333     0          
O        O      0.200000000000     0.086950000000     0.621700000000     0          
O        O      0.350000000000     0.125000000000     0.333333333333     0          
O        O      0.200000000000     0.079350000000     0.364600000000     0          
O        O      0.350000000000     0.069250000000     0.559166666667     0          
O        O      0.200000000000     0.120900000000     0.558333333333     0          
O        O      0.200000000000     0.029850000000     0.407500000000     0          
O        O      0.350000000000     0.078050000000     0.431266666667     0          
O        O      0.300000000000     0.087550000000     0.496766666667     0          
O        O      0.300000000000     0.029800000000     0.516266666667     0          
O        O      0.250000000000     0.000000000000     0.461866666667     0          
O        O      0.200000000000     0.413050000000     0.621700000000     0          
O        O      0.250000000000     0.375000000000     0.333333333333     0          
O        O      0.200000000000     0.420650000000     0.364600000000     0          
O        O      0.250000000000     0.430750000000     0.559166666667     0          
O        O      0.200000000000     0.379100000000     0.558333333333     0          
O        O      0.200000000000     0.470150000000     0.407500000000     0          
O        O      0.250000000000     0.421950000000     0.431266666667     0          
O        O      0.300000000000     0.412450000000     0.496766666667     0          
O        O      0.300000000000     0.470200000000     0.516266666667     0          
O        O      0.350000000000     0.000000000000     0.461866666667     0          
O        O      0.300000000000     0.163050000000     0.378300000000     0          
O        O      0.250000000000     0.125000000000     0.333333333333     0          
O        O      0.300000000000     0.170650000000     0.635400000000     0          
O        O      0.250000000000     0.180750000000     0.440833333333     0          
O        O      0.300000000000     0.129100000000     0.441666666667     0          
O        O      0.300000000000     0.220150000000     0.592500000000     0          
O        O      0.250000000000     0.171950000000     0.568733333333     0          
O        O      0.200000000000     0.162450000000     0.503233333333     0          
O        O      0.200000000000     0.220200000000     0.483733333333     0          
O        O      0.350000000000     0.250000000000     0.538133333333     0          
O        O      0.300000000000     0.336950000000     0.378300000000     0          
O        O      0.350000000000     0.375000000000     0.333333333333     0          
O        O      0.300000000000     0.329350000000     0.635400000000     0          
O        O      0.350000000000     0.319250000000     0.440833333333     0          
O        O      0.300000000000     0.370900000000     0.441666666667     0          
O        O      0.300000000000     0.279850000000     0.592500000000     0          
O        O      0.350000000000     0.328050000000     0.568733333333     0          
O        O      0.200000000000     0.337550000000     0.503233333333     0          
O        O      0.200000000000     0.279800000000     0.483733333333     0          
O        O      0.250000000000     0.250000000000     0.538133333333     0          
O        O      0.350000000000     0.180750000000     0.440833333333     0          
O        O      0.350000000000     0.171950000000     0.568733333333     0          
O        O      0.250000000000     0.319250000000     0.440833333333     0          
O        O      0.250000000000     0.328050000000     0.568733333333     0          
O        O      0.250000000000     0.069250000000     0.559166666667     0          
O        O      0.250000000000     0.078050000000     0.431266666667     0          
O        O      0.350000000000     0.430750000000     0.559166666667     0          
O        O      0.350000000000     0.421950000000     0.431266666667     0          
O        O      0.200000000000     0.086950000000     0.955033333333     0          
O        O      0.350000000000     0.125000000000     0.666666666667     0          
O        O      0.200000000000     0.079350000000     0.697933333333     0          
O        O      0.350000000000     0.069250000000     0.892500000000     0          
O        O      0.200000000000     0.120900000000     0.891666666667     0          
O        O      0.200000000000     0.029850000000     0.740833333333     0          
O        O      0.350000000000     0.078050000000     0.764600000000     0          
O        O      0.300000000000     0.087550000000     0.830100000000     0          
O        O      0.300000000000     0.029800000000     0.849600000000     0          
O        O      0.250000000000     0.000000000000     0.795200000000     0          
O        O      0.200000000000     0.413050000000     0.955033333333     0          
O        O      0.250000000000     0.375000000000     0.666666666667     0          
O        O      0.200000000000     0.420650000000     0.697933333333     0          
O        O      0.250000000000     0.430750000000     0.892500000000     0          
O        O      0.200000000000     0.379100000000     0.891666666667     0          
O        O      0.200000000000     0.470150000000     0.740833333333     0          
O        O      0.250000000000     0.421950000000     0.764600000000     0          
O        O      0.300000000000     0.412450000000     0.830100000000     0          
O        O      0.300000000000     0.470200000000     0.849600000000     0          
O        O      0.350000000000     0.000000000000     0.795200000000     0          
O        O      0.300000000000     0.163050000000     0.711633333333     0          
O        O      0.250000000000     0.125000000000     0.666666666667     0          
O        O      0.300000000000     0.170650000000     0.968733333333     0          
O        O      0.250000000000     0.180750000000     0.774166666667     0          
O        O      0.300000000000     0.129100000000     0.775000000000     0          
O        O      0.300000000000     0.220150000000     0.925833333333     0          
O        O      0.250000000000     0.171950000000     0.902066666667     0          
O        O      0.200000000000     0.162450000000     0.836566666667     0          
O        O      0.200000000000     0.220200000000     0.817066666667     0          
O        O      0.350000000000     0.250000000000     0.871466666667     0          
O        O      0.300000000000     0.336950000000     0.711633333333     0          
O        O      0.350000000000     0.375000000000     0.666666666667     0          
O        O      0.300000000000     0.329350000000     0.968733333333     0          
O        O      0.350000000000     0.319250000000     0.774166666667     0          
O        O      0.300000000000     0.370900000000     0.775000000000     0          
O        O      0.300000000000     0.279850000000     0.925833333333     0          
O        O      0.350000000000     0.328050000000     0.902066666667     0          
O        O      0.200000000000     0.337550000000     0.836566666667     0          
O        O      0.200000000000     0.279800000000     0.817066666667     0          
O        O      0.250000000000     0.250000000000     0.871466666667     0          
O        O      0.350000000000     0.180750000000     0.774166666667     0          
O        O      0.350000000000     0.171950000000     0.902066666667     0          
O        O      0.250000000000     0.319250000000     0.774166666667     0          
O        O      0.250000000000     0.328050000000     0.902066666667     0          
O        O      0.250000000000     0.069250000000     0.892500000000     0          
O        O      0.250000000000     0.078050000000     0.764600000000     0          
O        O      0.350000000000     0.430750000000     0.892500000000     0          
O        O      0.350000000000     0.421950000000     0.764600000000     0          
O        O      0.200000000000     0.586950000000     0.288366666667     0          
O        O      0.350000000000     0.625000000000     0.000000000000     0          
O        O      0.200000000000     0.579350000000     0.031266666667     0          
O        O      0.350000000000     0.569250000000     0.225833333333     0          
O        O      0.200000000000     0.620900000000     0.225000000000     0          
O        O      0.200000000000     0.529850000000     0.074166666667     0          
O        O      0.350000000000     0.578050000000     0.097933333333     0          
O        O      0.300000000000     0.587550000000     0.163433333333     0          
O        O      0.300000000000     0.529800000000     0.182933333333     0          
O        O      0.250000000000     0.500000000000     0.128533333333     0          
O        O      0.200000000000     0.913050000000     0.288366666667     0          
O        O      0.250000000000     0.875000000000     0.000000000000     0          
O        O      0.200000000000     0.920650000000     0.031266666667     0          
O        O      0.250000000000     0.930750000000     0.225833333333     0          
O        O      0.200000000000     0.879100000000     0.225000000000     0          
O        O      0.200000000000     0.970150000000     0.074166666667     0          
O        O      0.250000000000     0.921950000000     0.097933333333     0          
O        O      0.300000000000     0.912450000000     0.163433333333     0          
O        O      0.300000000000     0.970200000000     0.182933333333     0          
O        O      0.350000000000     0.500000000000     0.128533333333     0          
O        O      0.300000000000     0.663050000000     0.044966666667     0          
O        O      0.250000000000     0.625000000000     0.000000000000     0          
O        O      0.300000000000     0.670650000000     0.302066666667     0          
O        O      0.250000000000     0.680750000000     0.107500000000     0          
O        O      0.300000000000     0.629100000000     0.108333333333     0          
O        O      0.300000000000     0.720150000000     0.259166666667     0          
O        O      0.250000000000     0.671950000000     0.235400000000     0          
O        O      0.200000000000     0.662450000000     0.169900000000     0          
O        O      0.200000000000     0.720200000000     0.150400000000     0          
O        O      0.350000000000     0.750000000000     0.204800000000     0          
O        O      0.300000000000     0.836950000000     0.044966666667     0          
O        O      0.350000000000     0.875000000000     0.000000000000     0          
O        O      0.300000000000     0.829350000000     0.302066666667     0          
O        O      0.350000000000     0.819250000000     0.107500000000     0          
O        O      0.300000000000     0.870900000000     0.108333333333     0          
O        O      0.300000000000     0.779850000000     0.259166666667     0          
O        O      0.350000000000     0.828050000000     0.235400000000     0          
O        O      0.200000000000     0.837550000000     0.169900000000     0          
O        O      0.200000000000     0.779800000000     0.150400000000     0          
O        O      0.250000000000     0.750000000000     0.204800000000     0          
O        O      0.350000000000     0.680750000000     0.107500000000     0          
O        O      0.350000000000     0.671950000000     0.235400000000     0          
O        O      0.250000000000     0.819250000000     0.107500000000     0          
O        O      0.250000000000     0.828050000000     0.235400000000     0          
O        O      0.250000000000     0.569250000000     0.225833333333     0          
O        O      0.250000000000     0.578050000000     0.097933333333     0          
O        O      0.350000000000     0.930750000000     0.225833333333     0          
O        O      0.350000000000     0.921950000000     0.097933333333     0          
O        O      0.200000000000     0.586950000000     0.621700000000     0          
O        O      0.350000000000     0.625000000000     0.333333333333     0          
O        O      0.200000000000     0.579350000000     0.364600000000     0          
O        O      0.350000000000     0.569250000000     0.559166666667     0          
O        O      0.200000000000     0.620900000000     0.558333333333     0          
O        O      0.200000000000     0.529850000000     0.407500000000     0          
O        O      0.350000000000     0.578050000000     0.431266666667     0          
O        O      0.300000000000     0.587550000000     0.496766666667     0          
O        O      0.300000000000     0.529800000000     0.516266666667     0          
O        O      0.250000000000     0.500000000000     0.461866666667     0          
O        O      0.200000000000     0.913050000000     0.621700000000     0          
O        O      0.250000000000     0.875000000000     0.333333333333     0          
O        O      0.200000000000     0.920650000000     0.364600000000     0          
O        O      0.250000000000     0.930750000000     0.559166666667     0          
O        O      0.200000000000     0.879100000000     0.558333333333     0          
O        O      0.200000000000     0.970150000000     0.407500000000     0          
O        O      0.250000000000     0.921950000000     0.431266666667     0          
O        O      0.300000000000     0.912450000000     0.496766666667     0          
O        O      0.300000000000     0.970200000000     0.516266666667     0          
O        O      0.350000000000     0.500000000000     0.461866666667     0          
O        O      0.300000000000     0.663050000000     0.378300000000     0          
O        O      0.250000000000     0.625000000000     0.333333333333     0          
O        O      0.300000000000     0.670650000000     0.635400000000     0          
O        O      0.250000000000     0.680750000000     0.440833333333     0          
O        O      0.300000000000     0.629100000000     0.441666666667     0          
O        O      0.300000000000     0.720150000000     0.592500000000     0          
O        O      0.250000000000     0.671950000000     0.568733333333     0          
O        O      0.200000000000     0.662450000000     0.503233333333     0          
O        O      0.200000000000     0.720200000000     0.483733333333     0          
O        O      0.350000000000     0.750000000000     0.538133333333     0          
O        O      0.300000000000     0.836950000000     0.378300000000     0          
O        O      0.350000000000     0.875000000000     0.333333333333     0          
O        O      0.300000000000     0.829350000000     0.635400000000     0          
O        O      0.350000000000     0.819250000000     0.440833333333     0          
O        O      0.300000000000     0.870900000000     0.441666666667     0          
O        O      0.300000000000     0.779850000000     0.592500000000     0          
O        O      0.350000000000     0.828050000000     0.568733333333     0          
O        O      0.200000000000     0.837550000000     0.503233333333     0          
O        O      0.200000000000     0.779800000000     0.483733333333     0          
O        O      0.250000000000     0.750000000000     0.538133333333     0          
O        O      0.350000000000     0.680750000000     0.440833333333     0          
O        O      0.350000000000     0.671950000000     0.568733333333     0          
O        O      0.250000000000     0.819250000000     0.440833333333     0          
O        O      0.250000000000     0.828050000000     0.568733333333     0          
O        O      0.250000000000     0.569250000000     0.559166666667     0          
O        O      0.250000000000     0.578050000000     0.431266666667     0          
O        O      0.350000000000     0.930750000000     0.559166666667     0          
O        O      0.350000000000     0.921950000000     0.431266666667     0          
O        O      0.200000000000     0.586950000000     0.955033333333     0          
O        O      0.350000000000     0.625000000000     0.666666666667     0          
O        O      0.200000000000     0.579350000000     0.697933333333     0          
O        O      0.350000000000     0.569250000000     0.892500000000     0          
O        O      0.200000000000     0.620900000000     0.891666666667     0          
O        O      0.200000000000     0.529850000000     0.740833333333     0          
O        O      0.350000000000     0.578050000000     0.764600000000     0          
O        O      0.300000000000     0.587550000000     0.830100000000     0          
O        O      0.300000000000     0.529800000000     0.849600000000     0          
O        O      0.250000000000     0.500000000000     0.795200000000     0          
O        O      0.200000000000     0.913050000000     0.955033333333     0          
O        O      0.250000000000     0.875000000000     0.666666666667     0          
O        O      0.200000000000     0.920650000000     0.697933333333     0          
O        O      0.250000000000     0.930750000000     0.892500000000     0          
O        O      0.200000000000     0.879100000000     0.891666666667     0          
O        O      0.200000000000     0.970150000000     0.740833333333     0          
O        O      0.250000000000     0.921950000000     0.764600000000     0          
O        O      0.300000000000     0.912450000000     0.830100000000     0          
O        O      0.300000000000     0.970200000000     0.849600000000     0          
O        O      0.350000000000     0.500000000000     0.795200000000     0          
O        O      0.300000000000     0.663050000000     0.711633333333     0          
O        O      0.250000000000     0.625000000000     0.666666666667     0          
O        O      0.300000000000     0.670650000000     0.968733333333     0          
O        O      0.250000000000     0.680750000000     0.774166666667     0          
O        O      0.300000000000     0.629100000000     0.775000000000     0          
O        O      0.300000000000     0.720150000000     0.925833333333     0          
O        O      0.250000000000     0.671950000000     0.902066666667     0          
O        O      0.200000000000     0.662450000000     0.836566666667     0          
O        O      0.200000000000     0.720200000000     0.817066666667     0          
O        O      0.350000000000     0.750000000000     0.871466666667     0          
O        O      0.300000000000     0.836950000000     0.711633333333     0          
O        O      0.350000000000     0.875000000000     0.666666666667     0          
O        O      0.300000000000     0.829350000000     0.968733333333     0          
O        O      0.350000000000     0.819250000000     0.774166666667     0          
O        O      0.300000000000     0.870900000000     0.775000000000     0          
O        O      0.300000000000     0.779850000000     0.925833333333     0          
O        O      0.350000000000     0.828050000000     0.902066666667     0          
O        O      0.200000000000     0.837550000000     0.836566666667     0          
O        O      0.200000000000     0.779800000000     0.817066666667     0          
O        O      0.250000000000     0.750000000000     0.871466666667     0          
O        O      0.350000000000     0.680750000000     0.774166666667     0          
O        O      0.350000000000     0.671950000000     0.902066666667     0          
O        O      0.250000000000     0.819250000000     0.774166666667     0          
O        O      0.250000000000     0.828050000000     0.902066666667     0          
O        O      0.250000000000     0.569250000000     0.892500000000     0          
O        O      0.250000000000     0.578050000000     0.764600000000     0          
O        O      0.350000000000     0.930750000000     0.892500000000     0          
O        O      0.350000000000     0.921950000000     0.764600000000     0          
O        O      0.400000000000     0.086950000000     0.288366666667     0          
O        O      0.550000000000     0.125000000000     0.000000000000     0          
O        O      0.400000000000     0.079350000000     0.031266666667     0          
O        O      0.550000000000     0.069250000000     0.225833333333     0          
O        O      0.400000000000     0.120900000000     0.225000000000     0          
O        O      0.400000000000     0.029850000000     0.074166666667     0          
O        O      0.550000000000     0.078050000000     0.097933333333     0          
O        O      0.500000000000     0.087550000000     0.163433333333     0          
O        O      0.500000000000     0.029800000000     0.182933333333     0          
O        O      0.450000000000     0.000000000000     0.128533333333     0          
O        O      0.400000000000     0.413050000000     0.288366666667     0          
O        O      0.450000000000     0.375000000000     0.000000000000     0          
O        O      0.400000000000     0.420650000000     0.031266666667     0          
O        O      0.450000000000     0.430750000000     0.225833333333     0          
O        O      0.400000000000     0.379100000000     0.225000000000     0          
O        O      0.400000000000     0.470150000000     0.074166666667     0          
O        O      0.450000000000     0.421950000000     0.097933333333     0          
O        O      0.500000000000     0.412450000000     0.163433333333     0          
O        O      0.500000000000     0.470200000000     0.182933333333     0          
O        O      0.550000000000     0.000000000000     0.128533333333     0          
O        O      0.500000000000     0.163050000000     0.044966666667     0          
O        O      0.450000000000     0.125000000000     0.000000000000     0          
O        O      0.500000000000     0.170650000000     0.302066666667     0          
O        O      0.450000000000     0.180750000000     0.107500000000     0          
O        O      0.500000000000     0.129100000000     0.108333333333     0          
O        O      0.500000000000     0.220150000000     0.259166666667     0          
O        O      0.450000000000     0.171950000000     0.235400000000     0          
O        O      0.400000000000     0.162450000000     0.169900000000     0          
O        O      0.400000000000     0.220200000000     0.150400000000     0          
O        O      0.550000000000     0.250000000000     0.204800000000     0          
O        O      0.500000000000     0.336950000000     0.044966666667     0          
O        O      0.550000000000     0.375000000000     0.000000000000     0          
O        O      0.500000000000     0.329350000000     0.302066666667     0          
O        O      0.550000000000     0.319250000000     0.107500000000     0          
O        O      0.500000000000     0.370900000000     0.108333333333     0          
O        O      0.500000000000     0.279850000000     0.259166666667     0          
O        O      0.550000000000     0.328050000000     0.235400000000     0          
O        O      0.400000000000     0.337550000000     0.169900000000     0          
O        O      0.400000000000     0.279800000000     0.150400000000     0          
O        O      0.450000000000     0.250000000000     0.204800000000     0          
O        O      0.550000000000     0.180750000000     0.107500000000     0          
O        O      0.550000000000     0.171950000000     0.235400000000     0          
O        O      0.450000000000     0.319250000000     0.107500000000     0          
O        O      0.450000000000     0.328050000000     0.235400000000     0          
O        O      0.450000000000     0.069250000000     0.225833333333     0          
O        O      0.450000000000     0.078050000000     0.097933333333     0          
O        O      0.550000000000     0.430750000000     0.225833333333     0          
O        O      0.550000000000     0.421950000000     0.097933333333     0          
O        O      0.400000000000     0.086950000000     0.621700000000     0          
O        O      0.550000000000     0.125000000000     0.333333333333     0          
O        O      0.400000000000     0.079350000000     0.364600000000     0          
O        O      0.550000000000     0.069250000000     0.559166666667     0          
O        O      0.400000000000     0.120900000000     0.558333333333     0          
O        O      0.400000000000     0.029850000000     0.407500000000     0          
O        O      0.550000000000     0.078050000000     0.431266666667     0          
O        O      0.500000000000     0.087550000000     0.496766666667     0          
O        O      0.500000000000     0.029800000000     0.516266666667     0          
O        O      0.450000000000     0.000000000000     0.461866666667     0          
O        O      0.400000000000     0.413050000000     0.621700000000     0          
O        O      0.450000000000     0.375000000000     0.333333333333     0          
O        O      0.400000000000     0.420650000000     0.364600000000     0          
O        O      0.450000000000     0.430750000000     0.559166666667     0          
O        O      0.400000000000     0.379100000000     0.558333333333     0          
O        O      0.400000000000     0.470150000000     0.407500000000     0          
O        O      0.450000000000     0.421950000000     0.431266666667     0          
O        O      0.500000000000     0.412450000000     0.496766666667     0          
O        O      0.500000000000     0.470200000000     0.516266666667     0          
O        O      0.550000000000     0.000000000000     0.461866666667     0          
O        O      0.500000000000     0.163050000000     0.378300000000     0          
O        O      0.450000000000     0.125000000000     0.333333333333     0          
O        O      0.500000000000     0.170650000000     0.635400000000     0          
O        O      0.450000000000     0.180750000000     0.440833333333     0          
O        O      0.500000000000     0.129100000000     0.441666666667     0          
O        O      0.500000000000     0.220150000000     0.592500000000     0          
O        O      0.450000000000     0.171950000000     0.568733333333     0          
O        O      0.400000000000     0.162450000000     0.503233333333     0          
O        O      0.400000000000     0.220200000000     0.483733333333     0          
O        O      0.550000000000     0.250000000000     0.538133333333     0          
O        O      0.500000000000     0.336950000000     0.378300000000     0          
O        O      0.550000000000     0.375000000000     0.333333333333     0          
O        O      0.500000000000     0.329350000000     0.635400000000     0          
O        O      0.550000000000     0.319250000000     0.440833333333     0          
O        O      0.500000000000     0.370900000000     0.441666666667     0          
O        O      0.500000000000     0.279850000000     0.592500000000     0          
O        O      0.550000000000     0.328050000000     0.568733333333     0          
O        O      0.400000000000     0.337550000000     0.503233333333     0          
O        O      0.400000000000     0.279800000000     0.483733333333     0          
O        O      0.450000000000     0.250000000000     0.538133333333     0          
O        O      0.550000000000     0.180750000000     0.440833333333     0          
O        O      0.550000000000     0.171950000000     0.568733333333     0          
O        O      0.450000000000     0.319250000000     0.440833333333     0          
O        O      0.450000000000     0.328050000000     0.568733333333     0          
O        O      0.450000000000     0.069250000000     0.559166666667     0          
O        O      0.450000000000     0.078050000000     0.431266666667     0          
O        O      0.550000000000     0.430750000000     0.559166666667     0          
O        O      0.550000000000     0.421950000000     0.431266666667     0          
O        O      0.400000000000     0.086950000000     0.955033333333     0          
O        O      0.550000000000     0.125000000000     0.666666666667     0          
O        O      0.400000000000     0.079350000000     0.697933333333     0          
O        O      0.550000000000     0.069250000000     0.892500000000     0          
O        O      0.400000000000     0.120900000000     0.891666666667     0          
O        O      0.400000000000     0.029850000000     0.740833333333     0          
O        O      0.550000000000     0.078050000000     0.764600000000     0          
O        O      0.500000000000     0.087550000000     0.830100000000     0          
O        O      0.500000000000     0.029800000000     0.849600000000     0          
O        O      0.450000000000     0.000000000000     0.795200000000     0          
O        O      0.400000000000     0.413050000000     0.955033333333     0          
O        O      0.450000000000     0.375000000000     0.666666666667     0          
O        O      0.400000000000     0.420650000000     0.697933333333     0          
O        O      0.450000000000     0.430750000000     0.892500000000     0          
O        O      0.400000000000     0.379100000000     0.891666666667     0          
O        O      0.400000000000     0.470150000000     0.740833333333     0          
O        O      0.450000000000     0.421950000000     0.764600000000     0          
O        O      0.500000000000     0.412450000000     0.830100000000     0          
O        O      0.500000000000     0.470200000000     0.849600000000     0          
O        O      0.550000000000     0.000000000000     0.795200000000     0          
O        O      0.500000000000     0.163050000000     0.711633333333     0          
O        O      0.450000000000     0.125000000000     0.666666666667     0          
O        O      0.500000000000     0.170650000000     0.968733333333     0          
O        O      0.450000000000     0.180750000000     0.774166666667     0          
O        O      0.500000000000     0.129100000000     0.775000000000     0          
O        O      0.500000000000     0.220150000000     0.925833333333     0          
O        O      0.450000000000     0.171950000000     0.902066666667     0          
O        O      0.400000000000     0.162450000000     0.836566666667     0          
O        O      0.400000000000     0.220200000000     0.817066666667     0          
O        O      0.550000000000     0.250000000000     0.871466666667     0          
O        O      0.500000000000     0.336950000000     0.711633333333     0          
O        O      0.550000000000     0.375000000000     0.666666666667     0          
O        O      0.500000000000     0.329350000000     0.968733333333     0          
O        O      0.550000000000     0.319250000000     0.774166666667     0          
O        O      0.500000000000     0.370900000000     0.775000000000     0          
O        O      0.500000000000     0.279850000000     0.925833333333     0          
O        O      0.550000000000     0.328050000000     0.902066666667     0          
O        O      0.400000000000     0.337550000000     0.836566666667     0          
O        O      0.400000000000     0.279800000000     0.817066666667     0          
O        O      0.450000000000     0.250000000000     0.871466666667     0          
O        O      0.550000000000     0.180750000000     0.774166666667     0          
O        O      0.550000000000     0.171950000000     0.902066666667     0          
O        O      0.450000000000     0.319250000000     0.774166666667     0          
O        O      0.450000000000     0.328050000000     0.902066666667     0          
O        O      0.450000000000     0.069250000000     0.892500000000     0          
O        O      0.450000000000     0.078050000000     0.764600000000     0          
O        O      0.550000000000     0.430750000000     0.892500000000     0          
O        O      0.550000000000     0.421950000000     0.764600000000     0          
O        O      0.400000000000     0.586950000000     0.288366666667     0          
O        O      0.550000000000     0.625000000000     0.000000000000     0          
O        O      0.400000000000     0.579350000000     0.031266666667     0          
O        O      0.550000000000     0.569250000000     0.225833333333     0          
O        O      0.400000000000     0.620900000000     0.225000000000     0          
O        O      0.400000000000     0.529850000000     0.074166666667     0          
O        O      0.550000000000     0.578050000000     0.097933333333     0          
O        O      0.500000000000     0.587550000000     0.163433333333     0          
O        O      0.500000000000     0.529800000000     0.182933333333     0          
O        O      0.450000000000     0.500000000000     0.128533333333     0          
O        O      0.400000000000     0.913050000000     0.288366666667     0          
O        O      0.450000000000     0.875000000000     0.000000000000     0          
O        O      0.400000000000     0.920650000000     0.031266666667     0          
O        O      0.450000000000     0.930750000000     0.225833333333     0          
O        O      0.400000000000     0.879100000000     0.225000000000     0          
O        O      0.400000000000     0.970150000000     0.074166666667     0          
O        O      0.450000000000     0.921950000000     0.097933333333     0          
O        O      0.500000000000     0.912450000000     0.163433333333     0          
O        O      0.500000000000     0.970200000000     0.182933333333     0          
O        O      0.550000000000     0.500000000000     0.128533333333     0          
O        O      0.500000000000     0.663050000000     0.044966666667     0          
O        O      0.450000000000     0.625000000000     0.000000000000     0          
O        O      0.500000000000     0.670650000000     0.302066666667     0          
O        O      0.450000000000     0.680750000000     0.107500000000     0          
O        O      0.500000000000     0.629100000000     0.108333333333     0          
O        O      0.500000000000     0.720150000000     0.259166666667     0          
O        O      0.450000000000     0.671950000000     0.235400000000     0          
O        O      0.400000000000     0.662450000000     0.169900000000     0          
O        O      0.400000000000     0.720200000000     0.150400000000     0          
O        O      0.550000000000     0.750000000000     0.204800000000     0          
O        O      0.500000000000     0.836950000000     0.044966666667     0          
O        O      0.550000000000     0.875000000000     0.000000000000     0          
O        O      0.500000000000     0.829350000000     0.302066666667     0          
O        O      0.550000000000     0.819250000000     0.107500000000     0          
O        O      0.500000000000     0.870900000000     0.108333333333     0          
O        O      0.500000000000     0.779850000000     0.259166666667     0          
O        O      0.550000000000     0.828050000000     0.235400000000     0          
O        O      0.400000000000     0.837550000000     0.169900000000     0          
O        O      0.400000000000     0.779800000000     0.150400000000     0          
O        O      0.450000000000     0.750000000000     0.204800000000     0          
O        O      0.550000000000     0.680750000000     0.107500000000     0          
O        O      0.550000000000     0.671950000000     0.235400000000     0          
O        O      0.450000000000     0.819250000000     0.107500000000     0          
O        O      0.450000000000     0.828050000000     0.235400000000     0          
O        O      0.450000000000     0.569250000000     0.225833333333     0          
O        O      0.450000000000     0.578050000000     0.097933333333     0          
O        O      0.550000000000     0.930750000000     0.225833333333     0          
O        O      0.550000000000     0.921950000000     0.097933333333     0          
O        O      0.400000000000     0.586950000000     0.621700000000     0          
O        O      0.550000000000     0.625000000000     0.333333333333     0          
O        O      0.400000000000     0.579350000000     0.364600000000     0          
O        O      0.550000000000     0.569250000000     0.559166666667     0          
O        O      0.400000000000     0.620900000000     0.558333333333     0          
O        O      0.400000000000     0.529850000000     0.407500000000     0          
O        O      0.550000000000     0.578050000000     0.431266666667     0          
O        O      0.500000000000     0.587550000000     0.496766666667     0          
O        O      0.500000000000     0.529800000000     0.516266666667     0          
O        O      0.450000000000     0.500000000000     0.461866666667     0          
O        O      0.400000000000     0.913050000000     0.621700000000     0          
O        O      0.450000000000     0.875000000000     0.333333333333     0          
O        O      0.400000000000     0.920650000000     0.364600000000     0          
O        O      0.450000000000     0.930750000000     0.559166666667     0          
O        O      0.400000000000     0.879100000000     0.558333333333     0          
O        O      0.400000000000     0.970150000000     0.407500000000     0          
O        O      0.450000000000     0.921950000000     0.431266666667     0          
O        O      0.500000000000     0.912450000000     0.496766666667     0          
O        O      0.500000000000     0.970200000000     0.516266666667     0          
O        O      0.550000000000     0.500000000000     0.461866666667     0          
O        O      0.500000000000     0.663050000000     0.378300000000     0          
O        O      0.450000000000     0.625000000000     0.333333333333     0          
O        O      0.500000000000     0.670650000000     0.635400000000     0          
O        O      0.450000000000     0.680750000000     0.440833333333     0          
O        O      0.500000000000     0.629100000000     0.441666666667     0          
O        O      0.500000000000     0.720150000000     0.592500000000     0          
O        O      0.450000000000     0.671950000000     0.568733333333     0          
O        O      0.400000000000     0.662450000000     0.503233333333     0          
O        O      0.400000000000     0.720200000000     0.483733333333     0          
O        O      0.550000000000     0.750000000000     0.538133333333     0          
O        O      0.500000000000     0.836950000000     0.378300000000     0          
O        O      0.550000000000     0.875000000000     0.333333333333     0          
O        O      0.500000000000     0.829350000000     0.635400000000     0          
O        O      0.550000000000     0.819250000000     0.440833333333     0          
O        O      0.500000000000     0.870900000000     0.441666666667     0          
O        O      0.500000000000     0.779850000000     0.592500000000     0          
O        O      0.550000000000     0.828050000000     0.568733333333     0          
O        O      0.400000000000     0.837550000000     0.503233333333     0          
O        O      0.400000000000     0.779800000000     0.483733333333     0          
O        O      0.450000000000     0.750000000000     0.538133333333     0          
O        O      0.550000000000     0.680750000000     0.440833333333     0          
O        O      0.550000000000     0.671950000000     0.568733333333     0          
O        O      0.450000000000     0.819250000000     0.440833333333     0          
O        O      0.450000000000     0.828050000000     0.568733333333     0          
O        O      0.450000000000     0.569250000000     0.559166666667     0          
O        O      0.450000000000     0.578050000000     0.431266666667     0          
O        O      0.550000000000     0.930750000000     0.559166666667     0          
O        O      0.550000000000     0.921950000000     0.431266666667     0          
O        O      0.400000000000     0.586950000000     0.955033333333     0          
O        O      0.550000000000     0.625000000000     0.666666666667     0          
O        O      0.400000000000     0.579350000000     0.697933333333     0          
O        O      0.550000000000     0.569250000000     0.892500000000     0          
O        O      0.400000000000     0.620900000000     0.891666666667     0          
O        O      0.400000000000     0.529850000000     0.740833333333     0          
O        O      0.550000000000     0.578050000000     0.764600000000     0          
O        O      0.500000000000     0.587550000000     0.830100000000     0          
O        O      0.500000000000     0.529800000000     0.849600000000     0          
O        O      0.450000000000     0.500000000000     0.795200000000     0          
O        O      0.400000000000     0.913050000000     0.955033333333     0          
O        O      0.450000000000     0.875000000000     0.666666666667     0          
O        O      0.400000000000     0.920650000000     0.697933333333     0          
O        O      0.450000000000     0.930750000000     0.892500000000     0          
O        O      0.400000000000     0.879100000000     0.891666666667     0          
O        O      0.400000000000     0.970150000000     0.740833333333     0          
O        O      0.450000000000     0.921950000000     0.764600000000     0          
O        O      0.500000000000     0.912450000000     0.830100000000     0          
O        O      0.500000000000     0.970200000000     0.849600000000     0          
O        O      0.550000000000     0.500000000000     0.795200000000     0          
O        O      0.500000000000     0.663050000000     0.711633333333     0          
O        O      0.450000000000     0.625000000000     0.666666666667     0          
O        O      0.500000000000     0.670650000000     0.968733333333     0          
O        O      0.450000000000     0.680750000000     0.774166666667     0          
O        O      0.500000000000     0.629100000000     0.775000000000     0          
O        O      0.500000000000     0.720150000000     0.925833333333     0          
O        O      0.450000000000     0.671950000000     0.902066666667     0          
O        O      0.400000000000     0.662450000000     0.836566666667     0          
O        O      0.400000000000     0.720200000000     0.817066666667     0          
O        O      0.550000000000     0.750000000000     0.871466666667     0          
O        O      0.500000000000     0.836950000000     0.711633333333     0          
O        O      0.550000000000     0.875000000000     0.666666666667     0          
O        O      0.500000000000     0.829350000000     0.968733333333     0          
O        O      0.550000000000     0.819250000000     0.774166666667     0          
O        O      0.500000000000     0.870900000000     0.775000000000     0          
O        O      0.500000000000     0.779850000000     0.925833333333     0          
O        O      0.550000000000     0.828050000000     0.902066666667     0          
O        O      0.400000000000     0.837550000000     0.836566666667     0          
O        O      0.400000000000     0.779800000000     0.817066666667     0          
O        O      0.450000000000     0.750000000000     0.871466666667     0          
O        O      0.550000000000     0.680750000000     0.774166666667     0          
O        O      0.550000000000     0.671950000000     0.902066666667     0          
O        O      0.450000000000     0.819250000000     0.774166666667     0          
O        O      0.450000000000     0.828050000000     0.902066666667     0          
O        O      0.450000000000     0.569250000000     0.892500000000     0          
O        O      0.450000000000     0.578050000000     0.764600000000     0          
O        O      0.550000000000     0.930750000000     0.892500000000     0          
O        O      0.550000000000     0.921950000000     0.764600000000     0          
O        O      0.600000000000     0.086950000000     0.288366666667     0          
O        O      0.750000000000     0.125000000000     0.000000000000     0          
O        O      0.600000000000     0.079350000000     0.031266666667     0          
O        O      0.750000000000     0.069250000000     0.225833333333     0          
O        O      0.600000000000     0.120900000000     0.225000000000     0          
O        O      0.600000000000     0.029850000000     0.074166666667     0          
O        O      0.750000000000     0.078050000000     0.097933333333     0          
O        O      0.700000000000     0.087550000000     0.163433333333     0          
O        O      0.700000000000     0.029800000000     0.182933333333     0          
O        O      0.650000000000     0.000000000000     0.128533333333     0          
O        O      0.600000000000     0.413050000000     0.288366666667     0          
O        O      0.650000000000     0.375000000000     0.000000000000     0          
O        O      0.600000000000     0.420650000000     0.031266666667     0          
O        O      0.650000000000     0.430750000000     0.225833333333     0          
O        O      0.600000000000     0.379100000000     0.225000000000     0          
O        O      0.600000000000     0.470150000000     0.074166666667     0          
O        O      0.650000000000     0.421950000000     0.097933333333     0          
O        O      0.700000000000     0.412450000000     0.163433333333     0          
O        O      0.700000000000     0.470200000000     0.182933333333     0          
O        O      0.750000000000     0.000000000000     0.128533333333     0          
O        O      0.700000000000     0.163050000000     0.044966666667     0          
O        O      0.650000000000     0.125000000000     0.000000000000     0          
O        O      0.700000000000     0.170650000000     0.302066666667     0          
O        O      0.650000000000     0.180750000000     0.107500000000     0          
O        O      0.700000000000     0.129100000000     0.108333333333     0          
O        O      0.700000000000     0.220150000000     0.259166666667     0          
O        O      0.650000000000     0.171950000000     0.235400000000     0          
O        O      0.600000000000     0.162450000000     0.169900000000     0          
O        O      0.600000000000     0.220200000000     0.150400000000     0          
O        O      0.750000000000     0.250000000000     0.204800000000     0          
O        O      0.700000000000     0.336950000000     0.044966666667     0          
O        O      0.750000000000     0.375000000000     0.000000000000     0          
O        O      0.700000000000     0.329350000000     0.302066666667     0          
O        O      0.750000000000     0.319250000000     0.107500000000     0          
O        O      0.700000000000     0.370900000000     0.108333333333     0          
O        O      0.700000000000     0.279850000000     0.259166666667     0          
O        O      0.750000000000     0.328050000000     0.235400000000     0          
O        O      0.600000000000     0.337550000000     0.169900000000     0          
O        O      0.600000000000     0.279800000000     0.150400000000     0          
O        O      0.650000000000     0.250000000000     0.204800000000     0          
O        O      0.750000000000     0.180750000000     0.107500000000     0          
O        O      0.750000000000     0.171950000000     0.235400000000     0          
O        O      0.650000000000     0.319250000000     0.107500000000     0          
O        O      0.650000000000     0.328050000000     0.235400000000     0          
O        O      0.650000000000     0.069250000000     0.225833333333     0          
O        O      0.650000000000     0.078050000000     0.097933333333     0          
O        O      0.750000000000     0.430750000000     0.225833333333     0          
O        O      0.750000000000     0.421950000000     0.097933333333     0          
O        O      0.600000000000     0.086950000000     0.621700000000     0          
O        O      0.750000000000     0.125000000000     0.333333333333     0          
O        O      0.600000000000     0.079350000000     0.364600000000     0          
O        O      0.750000000000     0.069250000000     0.559166666667     0          
O        O      0.600000000000     0.120900000000     0.558333333333     0          
O        O      0.600000000000     0.029850000000     0.407500000000     0          
O        O      0.750000000000     0.078050000000     0.431266666667     0          
O        O      0.700000000000     0.087550000000     0.496766666667     0          
O        O      0.700000000000     0.029800000000     0.516266666667     0          
O        O      0.650000000000     0.000000000000     0.461866666667     0          
O        O      0.600000000000     0.413050000000     0.621700000000     0          
O        O      0.650000000000     0.375000000000     0.333333333333     0          
O        O      0.600000000000     0.420650000000     0.364600000000     0          
O        O      0.650000000000     0.430750000000     0.559166666667     0          
O        O      0.600000000000     0.379100000000     0.558333333333     0          
O        O      0.600000000000     0.470150000000     0.407500000000     0          
O        O      0.650000000000     0.421950000000     0.431266666667     0          
O        O      0.700000000000     0.412450000000     0.496766666667     0          
O        O      0.700000000000     0.470200000000     0.516266666667     0          
O        O      0.750000000000     0.000000000000     0.461866666667     0          
O        O      0.700000000000     0.163050000000     0.378300000000     0          
O        O      0.650000000000     0.125000000000     0.333333333333     0          
O        O      0.700000000000     0.170650000000     0.635400000000     0          
O        O      0.650000000000     0.180750000000     0.440833333333     0          
O        O      0.700000000000     0.129100000000     0.441666666667     0          
O        O      0.700000000000     0.220150000000     0.592500000000     0          
O        O      0.650000000000     0.171950000000     0.568733333333     0          
O        O      0.600000000000     0.162450000000     0.503233333333     0          
O        O      0.600000000000     0.220200000000     0.483733333333     0          
O        O      0.750000000000     0.250000000000     0.538133333333     0          
O        O      0.700000000000     0.336950000000     0.378300000000     0          
O        O      0.750000000000     0.375000000000     0.333333333333     0          
O        O      0.700000000000     0.329350000000     0.635400000000     0          
O        O      0.750000000000     0.319250000000     0.440833333333     0          
O        O      0.700000000000     0.370900000000     0.441666666667     0          
O        O      0.700000000000     0.279850000000     0.592500000000     0          
O        O      0.750000000000     0.328050000000     0.568733333333     0          
O        O      0.600000000000     0.337550000000     0.503233333333     0          
O        O      0.600000000000     0.279800000000     0.483733333333     0          
O        O      0.650000000000     0.250000000000     0.538133333333     0          
O        O      0.750000000000     0.180750000000     0.440833333333     0          
O        O      0.750000000000     0.171950000000     0.568733333333     0          
O        O      0.650000000000     0.319250000000     0.440833333333     0          
O        O      0.650000000000     0.328050000000     0.568733333333     0          
O        O      0.650000000000     0.069250000000     0.559166666667     0          
O        O      0.650000000000     0.078050000000     0.431266666667     0          
O        O      0.750000000000     0.430750000000     0.559166666667     0          
O        O      0.750000000000     0.421950000000     0.431266666667     0          
O        O      0.600000000000     0.086950000000     0.955033333333     0          
O        O      0.750000000000     0.125000000000     0.666666666667     0          
O        O      0.600000000000     0.079350000000     0.697933333333     0          
O        O      0.750000000000     0.069250000000     0.892500000000     0          
O        O      0.600000000000     0.120900000000     0.891666666667     0          
O        O      0.600000000000     0.029850000000     0.740833333333     0          
O        O      0.750000000000     0.078050000000     0.764600000000     0          
O        O      0.700000000000     0.087550000000     0.830100000000     0          
O        O      0.700000000000     0.029800000000     0.849600000000     0          
O        O      0.650000000000     0.000000000000     0.795200000000     0          
O        O      0.600000000000     0.413050000000     0.955033333333     0          
O        O      0.650000000000     0.375000000000     0.666666666667     0          
O        O      0.600000000000     0.420650000000     0.697933333333     0          
O        O      0.650000000000     0.430750000000     0.892500000000     0          
O        O      0.600000000000     0.379100000000     0.891666666667     0          
O        O      0.600000000000     0.470150000000     0.740833333333     0          
O        O      0.650000000000     0.421950000000     0.764600000000     0          
O        O      0.700000000000     0.412450000000     0.830100000000     0          
O        O      0.700000000000     0.470200000000     0.849600000000     0          
O        O      0.750000000000     0.000000000000     0.795200000000     0          
O        O      0.700000000000     0.163050000000     0.711633333333     0          
O        O      0.650000000000     0.125000000000     0.666666666667     0          
O        O      0.700000000000     0.170650000000     0.968733333333     0          
O        O      0.650000000000     0.180750000000     0.774166666667     0          
O        O      0.700000000000     0.129100000000     0.775000000000     0          
O        O      0.700000000000     0.220150000000     0.925833333333     0          
O        O      0.650000000000     0.171950000000     0.902066666667     0          
O        O      0.600000000000     0.162450000000     0.836566666667     0          
O        O      0.600000000000     0.220200000000     0.817066666667     0          
O        O      0.750000000000     0.250000000000     0.871466666667     0          
O        O      0.700000000000     0.336950000000     0.711633333333     0          
O        O      0.750000000000     0.375000000000     0.666666666667     0          
O        O      0.700000000000     0.329350000000     0.968733333333     0          
O        O      0.750000000000     0.319250000000     0.774166666667     0          
O        O      0.700000000000     0.370900000000     0.775000000000     0          
O        O      0.700000000000     0.279850000000     0.925833333333     0          
O        O      0.750000000000     0.328050000000     0.902066666667     0          
O        O      0.600000000000     0.337550000000     0.836566666667     0          
O        O      0.600000000000     0.279800000000     0.817066666667     0          
O        O      0.650000000000     0.250000000000     0.871466666667     0          
O        O      0.750000000000     0.180750000000     0.774166666667     0          
O        O      0.750000000000     0.171950000000     0.902066666667     0          
O        O      0.650000000000     0.319250000000     0.774166666667     0          
O        O      0.650000000000     0.328050000000     0.902066666667     0          
O        O      0.650000000000     0.069250000000     0.892500000000     0          
O        O      0.650000000000     0.078050000000     0.764600000000     0          
O        O      0.750000000000     0.430750000000     0.892500000000     0          
O        O      0.750000000000     0.421950000000     0.764600000000     0          
O        O      0.600000000000     0.586950000000     0.288366666667     0          
O        O      0.750000000000     0.625000000000     0.000000000000     0          
O        O      0.600000000000     0.579350000000     0.031266666667     0          
O        O      0.750000000000     0.569250000000     0.225833333333     0          
O        O      0.600000000000     0.620900000000     0.225000000000     0          
O        O      0.600000000000     0.529850000000     0.074166666667     0          
O        O      0.750000000000     0.578050000000     0.097933333333     0          
O        O      0.700000000000     0.587550000000     0.163433333333     0          
O        O      0.700000000000     0.529800000000     0.182933333333     0          
O        O      0.650000000000     0.500000000000     0.128533333333     0          
O        O      0.600000000000     0.913050000000     0.288366666667     0          
O        O      0.650000000000     0.875000000000     0.000000000000     0          
O        O      0.600000000000     0.920650000000     0.031266666667     0          
O        O      0.650000000000     0.930750000000     0.225833333333     0          
O        O      0.600000000000     0.879100000000     0.225000000000     0          
O        O      0.600000000000     0.970150000000     0.074166666667     0          
O        O      0.650000000000     0.921950000000     0.097933333333     0          
O        O      0.700000000000     0.912450000000     0.163433333333     0          
O        O      0.700000000000     0.970200000000     0.182933333333     0          
O        O      0.750000000000     0.500000000000     0.128533333333     0          
O        O      0.700000000000     0.663050000000     0.044966666667     0          
O        O      0.650000000000     0.625000000000     0.000000000000     0          
O        O      0.700000000000     0.670650000000     0.302066666667     0          
O        O      0.650000000000     0.680750000000     0.107500000000     0          
O        O      0.700000000000     0.629100000000     0.108333333333     0          
O        O      0.700000000000     0.720150000000     0.259166666667     0          
O        O      0.650000000000     0.671950000000     0.235400000000     0          
O        O      0.600000000000     0.662450000000     0.169900000000     0          
O        O      0.600000000000     0.720200000000     0.150400000000     0          
O        O      0.750000000000     0.750000000000     0.204800000000     0          
O        O      0.700000000000     0.836950000000     0.044966666667     0          
O        O      0.750000000000     0.875000000000     0.000000000000     0          
O        O      0.700000000000     0.829350000000     0.302066666667     0          
O        O      0.750000000000     0.819250000000     0.107500000000     0          
O        O      0.700000000000     0.870900000000     0.108333333333     0          
O        O      0.700000000000     0.779850000000     0.259166666667     0          
O        O      0.750000000000     0.828050000000     0.235400000000     0          
O        O      0.600000000000     0.837550000000     0.169900000000     0          
O        O      0.600000000000     0.779800000000     0.150400000000     0          
O        O      0.650000000000     0.750000000000     0.204800000000     0          
O        O      0.750000000000     0.680750000000     0.107500000000     0          
O        O      0.750000000000     0.671950000000     0.235400000000     0          
O        O      0.650000000000     0.819250000000     0.107500000000     0          
O        O      0.650000000000     0.828050000000     0.235400000000     0          
O        O      0.650000000000     0.569250000000     0.225833333333     0          
O        O      0.650000000000     0.578050000000     0.097933333333     0          
O        O      0.750000000000     0.930750000000     0.225833333333     0          
O        O      0.750000000000     0.921950000000     0.097933333333     0          
O        O      0.600000000000     0.586950000000     0.621700000000     0          
O        O      0.750000000000     0.625000000000     0.333333333333     0          
O        O      0.600000000000     0.579350000000     0.364600000000     0          
O        O      0.750000000000     0.569250000000     0.559166666667     0          
O        O      0.600000000000     0.620900000000     0.558333333333     0          
O        O      0.600000000000     0.529850000000     0.407500000000     0          
O        O      0.750000000000     0.578050000000     0.431266666667     0          
O        O      0.700000000000     0.587550000000     0.496766666667     0          
O        O      0.700000000000     0.529800000000     0.516266666667     0          
O        O      0.650000000000     0.500000000000     0.461866666667     0          
O        O      0.600000000000     0.913050000000     0.621700000000     0          
O        O      0.650000000000     0.875000000000     0.333333333333     0          
O        O      0.600000000000     0.920650000000     0.364600000000     0          
O        O      0.650000000000     0.930750000000     0.559166666667     0          
O        O      0.600000000000     0.879100000000     0.558333333333     0          
O        O      0.600000000000     0.970150000000     0.407500000000     0          
O        O      0.650000000000     0.921950000000     0.431266666667     0          
O        O      0.700000000000     0.912450000000     0.496766666667     0          
O        O      0.700000000000     0.970200000000     0.516266666667     0          
O        O      0.750000000000     0.500000000000     0.461866666667     0          
O        O      0.700000000000     0.663050000000     0.378300000000     0          
O        O      0.650000000000     0.625000000000     0.333333333333     0          
O        O      0.700000000000     0.670650000000     0.635400000000     0          
O        O      0.650000000000     0.680750000000     0.440833333333     0          
O        O      0.700000000000     0.629100000000     0.441666666667     0          
O        O      0.700000000000     0.720150000000     0.592500000000     0          
O        O      0.650000000000     0.671950000000     0.568733333333     0          
O        O      0.600000000000     0.662450000000     0.503233333333     0          
O        O      0.600000000000     0.720200000000     0.483733333333     0          
O        O      0.750000000000     0.750000000000     0.538133333333     0          
O        O      0.700000000000     0.836950000000     0.378300000000     0          
O        O      0.750000000000     0.875000000000     0.333333333333     0          
O        O      0.700000000000     0.829350000000     0.635400000000     0          
O        O      0.750000000000     0.819250000000     0.440833333333     0          
O        O      0.700000000000     0.870900000000     0.441666666667     0          
O        O      0.700000000000     0.779850000000     0.592500000000     0          
O        O      0.750000000000     0.828050000000     0.568733333333     0          
O        O      0.600000000000     0.837550000000     0.503233333333     0          
O        O      0.600000000000     0.779800000000     0.483733333333     0          
O        O      0.650000000000     0.750000000000     0.538133333333     0          
O        O      0.750000000000     0.680750000000     0.440833333333     0          
O        O      0.750000000000     0.671950000000     0.568733333333     0          
O        O      0.650000000000     0.819250000000     0.440833333333     0          
O        O      0.650000000000     0.828050000000     0.568733333333     0          
O        O      0.650000000000     0.569250000000     0.559166666667     0          
O        O      0.650000000000     0.578050000000     0.431266666667     0          
O        O      0.750000000000     0.930750000000     0.559166666667     0          
O        O      0.750000000000     0.921950000000     0.431266666667     0          
O        O      0.600000000000     0.586950000000     0.955033333333     0          
O        O      0.750000000000     0.625000000000     0.666666666667     0          
O        O      0.600000000000     0.579350000000     0.697933333333     0          
O        O      0.750000000000     0.569250000000     0.892500000000     0          
O        O      0.600000000000     0.620900000000     0.891666666667     0          
O        O      0.600000000000     0.529850000000     0.740833333333     0          
O        O      0.750000000000     0.578050000000     0.764600000000     0          
O        O      0.700000000000     0.587550000000     0.830100000000     0          
O        O      0.700000000000     0.529800000000     0.849600000000     0          
O        O      0.650000000000     0.500000000000     0.795200000000     0          
O        O      0.600000000000     0.913050000000     0.955033333333     0          
O        O      0.650000000000     0.875000000000     0.666666666667     0          
O        O      0.600000000000     0.920650000000     0.697933333333     0          
O        O      0.650000000000     0.930750000000     0.892500000000     0          
O        O      0.600000000000     0.879100000000     0.891666666667     0          
O        O      0.600000000000     0.970150000000     0.740833333333     0          
O        O      0.650000000000     0.921950000000     0.764600000000     0          
O        O      0.700000000000     0.912450000000     0.830100000000     0          
O        O      0.700000000000     0.970200000000     0.849600000000     0          
O        O      0.750000000000     0.500000000000     0.795200000000     0          
O        O      0.700000000000     0.663050000000     0.711633333333     0          
O        O      0.650000000000     0.625000000000     0.666666666667     0          
O        O      0.700000000000     0.670650000000     0.968733333333     0          
O        O      0.650000000000     0.680750000000     0.774166666667     0          
O        O      0.700000000000     0.629100000000     0.775000000000     0          
O        O      0.700000000000     0.720150000000     0.925833333333     0          
O        O      0.650000000000     0.671950000000     0.902066666667     0          
O        O      0.600000000000     0.662450000000     0.836566666667     0          
O        O      0.600000000000     0.720200000000     0.817066666667     0          
O        O      0.750000000000     0.750000000000     0.871466666667     0          
O        O      0.700000000000     0.836950000000     0.711633333333     0          
O        O      0.750000000000     0.875000000000     0.666666666667     0          
O        O      0.700000000000     0.829350000000     0.968733333333     0          
O        O      0.750000000000     0.819250000000     0.774166666667     0          
O        O      0.700000000000     0.870900000000     0.775000000000     0          
O        O      0.700000000000     0.779850000000     0.925833333333     0          
O        O      0.750000000000     0.828050000000     0.902066666667     0          
O        O      0.600000000000     0.837550000000     0.836566666667     0          
O        O      0.600000000000     0.779800000000     0.817066666667     0          
O        O      0.650000000000     0.750000000000     0.871466666667     0          
O        O      0.750000000000     0.680750000000     0.774166666667     0          
O        O      0.750000000000     0.671950000000     0.902066666667     0          
O        O      0.650000000000     0.819250000000     0.774166666667     0          
O        O      0.650000000000     0.828050000000     0.902066666667     0          
O        O      0.650000000000     0.569250000000     0.892500000000     0          
O        O      0.650000000000     0.578050000000     0.764600000000     0          
O        O      0.750000000000     0.930750000000     0.892500000000     0          
O        O      0.750000000000     0.921950000000     0.764600000000     0          
O        O      0.800000000000     0.086950000000     0.288366666667     0          
O        O      0.950000000000     0.125000000000     0.000000000000     0          
O        O      0.800000000000     0.079350000000     0.031266666667     0          
O        O      0.950000000000     0.069250000000     0.225833333333     0          
O        O      0.800000000000     0.120900000000     0.225000000000     0          
O        O      0.800000000000     0.029850000000     0.074166666667     0          
O        O      0.950000000000     0.078050000000     0.097933333333     0          
O        O      0.900000000000     0.087550000000     0.163433333333     0          
O        O      0.900000000000     0.029800000000     0.182933333333     0          
O        O      0.850000000000     0.000000000000     0.128533333333     0          
O        O      0.800000000000     0.413050000000     0.288366666667     0          
O        O      0.850000000000     0.375000000000     0.000000000000     0          
O        O      0.800000000000     0.420650000000     0.031266666667     0          
O        O      0.850000000000     0.430750000000     0.225833333333     0          
O        O      0.800000000000     0.379100000000     0.225000000000     0          
O        O      0.800000000000     0.470150000000     0.074166666667     0          
O        O      0.850000000000     0.421950000000     0.097933333333     0          
O        O      0.900000000000     0.412450000000     0.163433333333     0          
O        O      0.900000000000     0.470200000000     0.182933333333     0          
O        O      0.950000000000     0.000000000000     0.128533333333     0          
O        O      0.900000000000     0.163050000000     0.044966666667     0          
O        O      0.850000000000     0.125000000000     0.000000000000     0          
O        O      0.900000000000     0.170650000000     0.302066666667     0          
O        O      0.850000000000     0.180750000000     0.107500000000     0          
O        O      0.900000000000     0.129100000000     0.108333333333     0          
O        O      0.900000000000     0.220150000000     0.259166666667     0          
O        O      0.850000000000     0.171950000000     0.235400000000     0          
O        O      0.800000000000     0.162450000000     0.169900000000     0          
O        O      0.800000000000     0.220200000000     0.150400000000     0          
O        O      0.950000000000     0.250000000000     0.204800000000     0          
O        O      0.900000000000     0.336950000000     0.044966666667     0          
O        O      0.950000000000     0.375000000000     0.000000000000     0          
O        O      0.900000000000     0.329350000000     0.302066666667     0          
O        O      0.950000000000     0.319250000000     0.107500000000     0          
O        O      0.900000000000     0.370900000000     0.108333333333     0          
O        O      0.900000000000     0.279850000000     0.259166666667     0          
O        O      0.950000000000     0.328050000000     0.235400000000     0          
O        O      0.800000000000     0.337550000000     0.169900000000     0          
O        O      0.800000000000     0.279800000000     0.150400000000     0          
O        O      0.850000000000     0.250000000000     0.204800000000     0          
O        O      0.950000000000     0.180750000000     0.107500000000     0          
O        O      0.950000000000     0.171950000000     0.235400000000     0          
O        O      0.850000000000     0.319250000000     0.107500000000     0          
O        O      0.850000000000     0.328050000000     0.235400000000     0          
O        O      0.850000000000     0.069250000000     0.225833333333     0          
O        O      0.850000000000     0.078050000000     0.097933333333     0          
O        O      0.950000000000     0.430750000000     0.225833333333     0          
O        O      0.950000000000     0.421950000000     0.097933333333     0          
O        O      0.800000000000     0.086950000000     0.621700000000     0          
O        O      0.950000000000     0.125000000000     0.333333333333     0          
O        O      0.800000000000     0.079350000000     0.364600000000     0          
O        O      0.950000000000     0.069250000000     0.559166666667     0          
O        O      0.800000000000     0.120900000000     0.558333333333     0          
O        O      0.800000000000     0.029850000000     0.407500000000     0          
O        O      0.950000000000     0.078050000000     0.431266666667     0          
O        O      0.900000000000     0.087550000000     0.496766666667     0          
O        O      0.900000000000     0.029800000000     0.516266666667     0          
O        O      0.850000000000     0.000000000000     0.461866666667     0          
O        O      0.800000000000     0.413050000000     0.621700000000     0          
O        O      0.850000000000     0.375000000000     0.333333333333     0          
O        O      0.800000000000     0.420650000000     0.364600000000     0          
O        O      0.850000000000     0.430750000000     0.559166666667     0          
O        O      0.800000000000     0.379100000000     0.558333333333     0          
O        O      0.800000000000     0.470150000000     0.407500000000     0          
O        O      0.850000000000     0.421950000000     0.431266666667     0          
O        O      0.900000000000     0.412450000000     0.496766666667     0          
O        O      0.900000000000     0.470200000000     0.516266666667     0          
O        O      0.950000000000     0.000000000000     0.461866666667     0          
O        O      0.900000000000     0.163050000000     0.378300000000     0          
O        O      0.850000000000     0.125000000000     0.333333333333     0          
O        O      0.900000000000     0.170650000000     0.635400000000     0          
O        O      0.850000000000     0.180750000000     0.440833333333     0          
O        O      0.900000000000     0.129100000000     0.441666666667     0          
O        O      0.900000000000     0.220150000000     0.592500000000     0          
O        O      0.850000000000     0.171950000000     0.568733333333     0          
O        O      0.800000000000     0.162450000000     0.503233333333     0          
O        O      0.800000000000     0.220200000000     0.483733333333     0          
O        O      0.950000000000     0.250000000000     0.538133333333     0          
O        O      0.900000000000     0.336950000000     0.378300000000     0          
O        O      0.950000000000     0.375000000000     0.333333333333     0          
O        O      0.900000000000     0.329350000000     0.635400000000     0          
O        O      0.950000000000     0.319250000000     0.440833333333     0          
O        O      0.900000000000     0.370900000000     0.441666666667     0          
O        O      0.900000000000     0.279850000000     0.592500000000     0          
O        O      0.950000000000     0.328050000000     0.568733333333     0          
O        O      0.800000000000     0.337550000000     0.503233333333     0          
O        O      0.800000000000     0.279800000000     0.483733333333     0          
O        O      0.850000000000     0.250000000000     0.538133333333     0          
O        O      0.950000000000     0.180750000000     0.440833333333     0          
O        O      0.950000000000     0.171950000000     0.568733333333     0          
O        O      0.850000000000     0.319250000000     0.440833333333     0          
O        O      0.850000000000     0.328050000000     0.568733333333     0          
O        O      0.850000000000     0.069250000000     0.559166666667     0          
O        O      0.850000000000     0.078050000000     0.431266666667     0          
O        O      0.950000000000     0.430750000000     0.559166666667     0          
O        O      0.950000000000     0.421950000000     0.431266666667     0          
O        O      0.800000000000     0.086950000000     0.955033333333     0          
O        O      0.950000000000     0.125000000000     0.666666666667     0          
O        O      0.800000000000     0.079350000000     0.697933333333     0          
O        O      0.950000000000     0.069250000000     0.892500000000     0          
O        O      0.800000000000     0.120900000000     0.891666666667     0          
O        O      0.800000000000     0.029850000000     0.740833333333     0          
O        O      0.950000000000     0.078050000000     0.764600000000     0          
O        O      0.900000000000     0.087550000000     0.830100000000     0          
O        O      0.900000000000     0.029800000000     0.849600000000     0          
O        O      0.850000000000     0.000000000000     0.795200000000     0          
O        O      0.800000000000     0.413050000000     0.955033333333     0          
O        O      0.850000000000     0.375000000000     0.666666666667     0          
O        O      0.800000000000     0.420650000000     0.697933333333     0          
O        O      0.850000000000     0.430750000000     0.892500000000     0          
O        O      0.800000000000     0.379100000000     0.891666666667     0          
O        O      0.800000000000     0.470150000000     0.740833333333     0          
O        O      0.850000000000     0.421950000000     0.764600000000     0          
O        O      0.900000000000     0.412450000000     0.830100000000     0          
O        O      0.900000000000     0.470200000000     0.849600000000     0          
O        O      0.950000000000     0.000000000000     0.795200000000     0          
O        O      0.900000000000     0.163050000000     0.711633333333     0          
O        O      0.850000000000     0.125000000000     0.666666666667     0          
O        O      0.900000000000     0.170650000000     0.968733333333     0          
O        O      0.850000000000     0.180750000000     0.774166666667     0          
O        O      0.900000000000     0.129100000000     0.775000000000     0          
O        O      0.900000000000     0.220150000000     0.925833333333     0          
O        O      0.850000000000     0.171950000000     0.902066666667     0          
O        O      0.800000000000     0.162450000000     0.836566666667     0          
O        O      0.800000000000     0.220200000000     0.817066666667     0          
O        O      0.950000000000     0.250000000000     0.871466666667     0          
O        O      0.900000000000     0.336950000000     0.711633333333     0          
O        O      0.950000000000     0.375000000000     0.666666666667     0          
O        O      0.900000000000     0.329350000000     0.968733333333     0          
O        O      0.950000000000     0.319250000000     0.774166666667     0          
O        O      0.900000000000     0.370900000000     0.775000000000     0          
O        O      0.900000000000     0.279850000000     0.925833333333     0          
O        O      0.950000000000     0.328050000000     0.902066666667     0          
O        O      0.800000000000     0.337550000000     0.836566666667     0          
O        O      0.800000000000     0.279800000000     0.817066666667     0          
O        O      0.850000000000     0.250000000000     0.871466666667     0          
O        O      0.950000000000     0.180750000000     0.774166666667     0          
O        O      0.950000000000     0.171950000000     0.902066666667     0          
O        O      0.850000000000     0.319250000000     0.774166666667     0          
O        O      0.850000000000     0.328050000000     0.902066666667     0          
O        O      0.850000000000     0.069250000000     0.892500000000     0          
O        O      0.850000000000     0.078050000000     0.764600000000     0          
O        O      0.950000000000     0.430750000000     0.892500000000     0          
O        O      0.950000000000     0.421950000000     0.764600000000     0          
O        O      0.800000000000     0.586950000000     0.288366666667     0          
O        O      0.950000000000     0.625000000000     0.000000000000     0          
O        O      0.800000000000     0.579350000000     0.031266666667     0          
O        O      0.950000000000     0.569250000000     0.225833333333     0          
O        O      0.800000000000     0.620900000000     0.225000000000     0          
O        O      0.800000000000     0.529850000000     0.074166666667     0          
O        O      0.950000000000     0.578050000000     0.097933333333     0          
O        O      0.900000000000     0.587550000000     0.163433333333     0          
O        O      0.900000000000     0.529800000000     0.182933333333     0          
O        O      0.850000000000     0.500000000000     0.128533333333     0          
O        O      0.800000000000     0.913050000000     0.288366666667     0          
O        O      0.850000000000     0.875000000000     0.000000000000     0          
O        O      0.800000000000     0.920650000000     0.031266666667     0          
O        O      0.850000000000     0.930750000000     0.225833333333     0          
O        O      0.800000000000     0.879100000000     0.225000000000     0          
O        O      0.800000000000     0.970150000000     0.074166666667     0          
O        O      0.850000000000     0.921950000000     0.097933333333     0          
O        O      0.900000000000     0.912450000000     0.163433333333     0          
O        O      0.900000000000     0.970200000000     0.182933333333     0          
O        O      0.950000000000     0.500000000000     0.128533333333     0          
O        O      0.900000000000     0.663050000000     0.044966666667     0          
O        O      0.850000000000     0.625000000000     0.000000000000     0          
O        O      0.900000000000     0.670650000000     0.302066666667     0          
O        O      0.850000000000     0.680750000000     0.107500000000     0          
O        O      0.900000000000     0.629100000000     0.108333333333     0          
O        O      0.900000000000     0.720150000000     0.259166666667     0          
O        O      0.850000000000     0.671950000000     0.235400000000     0          
O        O      0.800000000000     0.662450000000     0.169900000000     0          
O        O      0.800000000000     0.720200000000     0.150400000000     0          
O        O      0.950000000000     0.750000000000     0.204800000000     0          
O        O      0.900000000000     0.836950000000     0.044966666667     0          
O        O      0.950000000000     0.875000000000     0.000000000000     0          
O        O      0.900000000000     0.829350000000     0.302066666667     0          
O        O      0.950000000000     0.819250000000     0.107500000000     0          
O        O      0.900000000000     0.870900000000     0.108333333333     0          
O        O      0.900000000000     0.779850000000     0.259166666667     0          
O        O      0.950000000000     0.828050000000     0.235400000000     0          
O        O      0.800000000000     0.837550000000     0.169900000000     0          
O        O      0.800000000000     0.779800000000     0.150400000000     0          
O        O      0.850000000000     0.750000000000     0.204800000000     0          
O        O      0.950000000000     0.680750000000     0.107500000000     0          
O        O      0.950000000000     0.671950000000     0.235400000000     0          
O        O      0.850000000000     0.819250000000     0.107500000000     0          
O        O      0.850000000000     0.828050000000     0.235400000000     0          
O        O      0.850000000000     0.569250000000     0.225833333333     0          
O        O      0.850000000000     0.578050000000     0.097933333333     0          
O        O      0.950000000000     0.930750000000     0.225833333333     0          
O        O      0.950000000000     0.921950000000     0.097933333333     0          
O        O      0.800000000000     0.586950000000     0.621700000000     0          
O        O      0.950000000000     0.625000000000     0.333333333333     0          
O        O      0.800000000000     0.579350000000     0.364600000000     0          
O        O      0.950000000000     0.569250000000     0.559166666667     0          
O        O      0.800000000000     0.620900000000     0.558333333333     0          
O        O      0.800000000000     0.529850000000     0.407500000000     0          
O        O      0.950000000000     0.578050000000     0.431266666667     0          
O        O      0.900000000000     0.587550000000     0.496766666667     0          
O        O      0.900000000000     0.529800000000     0.516266666667     0          
O        O      0.850000000000     0.500000000000     0.461866666667     0          
O        O      0.800000000000     0.913050000000     0.621700000000     0          
O        O      0.850000000000     0.875000000000     0.333333333333     0          
O        O      0.800000000000     0.920650000000     0.364600000000     0          
O        O      0.850000000000     0.930750000000     0.559166666667     0          
O        O      0.800000000000     0.879100000000     0.558333333333     0          
O        O      0.800000000000     0.970150000000     0.407500000000     0          
O        O      0.850000000000     0.921950000000     0.431266666667     0          
O        O      0.900000000000     0.912450000000     0.496766666667     0          
O        O      0.900000000000     0.970200000000     0.516266666667     0          
O        O      0.950000000000     0.500000000000     0.461866666667     0          
O        O      0.900000000000     0.663050000000     0.378300000000     0          
O        O      0.850000000000     0.625000000000     0.333333333333     0          
O        O      0.900000000000     0.670650000000     0.635400000000     0          
O        O      0.850000000000     0.680750000000     0.440833333333     0          
O        O      0.900000000000     0.629100000000     0.441666666667     0          
O        O      0.900000000000     0.720150000000     0.592500000000     0          
O        O      0.850000000000     0.671950000000     0.568733333333     0          
O        O      0.800000000000     0.662450000000     0.503233333333     0          
O        O      0.800000000000     0.720200000000     0.483733333333     0          
O        O      0.950000000000     0.750000000000     0.538133333333     0          
O        O      0.900000000000     0.836950000000     0.378300000000     0          
O        O      0.950000000000     0.875000000000     0.333333333333     0          
O        O      0.900000000000     0.829350000000     0.635400000000     0          
O        O      0.950000000000     0.819250000000     0.440833333333     0          
O        O      0.900000000000     0.870900000000     0.441666666667     0          
O        O      0.900000000000     0.779850000000     0.592500000000     0          
O        O      0.950000000000     0.828050000000     0.568733333333     0          
O        O      0.800000000000     0.837550000000     0.503233333333     0          
O        O      0.800000000000     0.779800000000     0.483733333333     0          
O        O      0.850000000000     0.750000000000     0.538133333333     0          
O        O      0.950000000000     0.680750000000     0.440833333333     0          
O        O      0.950000000000     0.671950000000     0.568733333333     0          
O        O      0.850000000000     0.819250000000     0.440833333333     0          
O        O      0.850000000000     0.828050000000     0.568733333333     0          
O        O      0.850000000000     0.569250000000     0.559166666667     0          
O        O      0.850000000000     0.578050000000     0.431266666667     0          
O        O      0.950000000000     0.930750000000     0.559166666667     0          
O        O      0.950000000000     0.921950000000     0.431266666667     0          
O        O      0.800000000000     0.586950000000     0.955033333333     0          
O        O      0.950000000000     0.625000000000     0.666666666667     0          
O        O      0.800000000000     0.579350000000     0.697933333333     0          
O        O      0.950000000000     0.569250000000     0.892500000000     0          
O        O      0.800000000000     0.620900000000     0.891666666667     0          
O        O      0.800000000000     0.529850000000     0.740833333333     0          
O        O      0.950000000000     0.578050000000     0.764600000000     0          
O        O      0.900000000000     0.587550000000     0.830100000000     0          
O        O      0.900000000000     0.529800000000     0.849600000000     0          
O        O      0.850000000000     0.500000000000     0.795200000000     0          
O        O      0.800000000000     0.913050000000     0.955033333333     0          
O        O      0.850000000000     0.875000000000     0.666666666667     0          
O        O      0.800000000000     0.920650000000     0.697933333333     0          
O        O      0.850000000000     0.930750000000     0.892500000000     0          
O        O      0.800000000000     0.879100000000     0.891666666667     0          
O        O      0.800000000000     0.970150000000     0.740833333333     0          
O        O      0.850000000000     0.921950000000     0.764600000000     0          
O        O      0.900000000000     0.912450000000     0.830100000000     0          
O        O      0.900000000000     0.970200000000     0.849600000000     0          
O        O      0.950000000000     0.500000000000     0.795200000000     0          
O        O      0.900000000000     0.663050000000     0.711633333333     0          
O        O      0.850000000000     0.625000000000     0.666666666667     0          
O        O      0.900000000000     0.670650000000     0.968733333333     0          
O        O      0.850000000000     0.680750000000     0.774166666667     0          
O        O      0.900000000000     0.629100000000     0.775000000000     0          
O        O      0.900000000000     0.720150000000     0.925833333333     0          
O        O      0.850000000000     0.671950000000     0.902066666667     0          
O        O      0.800000000000     0.662450000000     0.836566666667     0          
O        O      0.800000000000     0.720200000000     0.817066666667     0          
O        O      0.950000000000     0.750000000000     0.871466666667     0          
O        O      0.900000000000     0.836950000000     0.711633333333     0          
O        O      0.950000000000     0.875000000000     0.666666666667     0          
O        O      0.900000000000     0.829350000000     0.968733333333     0          
O        O      0.950000000000     0.819250000000     0.774166666667     0          
O        O      0.900000000000     0.870900000000     0.775000000000     0          
O        O      0.900000000000     0.779850000000     0.925833333333     0          
O        O      0.950000000000     0.828050000000     0.902066666667     0          
O        O      0.800000000000     0.837550000000     0.836566666667     0          
O        O      0.800000000000     0.779800000000     0.817066666667     0          
O        O      0.850000000000     0.750000000000     0.871466666667     0          
O        O      0.950000000000     0.680750000000     0.774166666667     0          
O        O      0.950000000000     0.671950000000     0.902066666667     0          
O        O      0.850000000000     0.819250000000     0.774166666667     0          
O        O      0.850000000000     0.828050000000     0.902066666667     0          
O        O      0.850000000000     0.569250000000     0.892500000000     0          
O        O      0.850000000000     0.578050000000     0.764600000000     0          
O        O      0.950000000000     0.930750000000     0.892500000000     0          
O        O      0.950000000000     0.921950000000     0.764600000000     0          


