data_zeolite

_audit_creation_method RASPA-1.0
_audit_creation_date 2021-6-10
_audit_author_name ''

_cell_length_a    24.345
_cell_length_b    24.345
_cell_length_c    24.345
_cell_angle_alpha 90
_cell_angle_beta  90
_cell_angle_gamma 90
_cell_volume      115430

_symmetry_cell_setting          cubic
_symmetry_space_group_name_Hall 'P 1'
_symmetry_space_group_name_H-M  'P 1'
_symmetry_Int_Tables_number     1

_symmetry_equiv_pos_as_xyz 'x,y,z'

loop_
_atom_site_label
_atom_site_type_symbol
_atom_site_fract_x
_atom_site_fract_y
_atom_site_fract_z
_atom_site_charge
T        Si     0.473450000000     0.062550000000     0.018200000000     0          
T        Si     0.437450000000     0.098450000000     0.143200000000     0          
T        Si     0.401550000000     0.062450000000     0.268200000000     0          
T        Si     0.437550000000     0.026550000000     0.393200000000     0          
T        Si     0.473450000000     0.062450000000     0.106800000000     0          
T        Si     0.437550000000     0.098450000000     0.231800000000     0          
T        Si     0.401550000000     0.062550000000     0.356800000000     0          
T        Si     0.437450000000     0.026550000000     0.481800000000     0          
T        Si     0.018200000000     0.473450000000     0.062550000000     0          
T        Si     0.026550000000     0.143200000000     0.187550000000     0          
T        Si     0.356800000000     0.151550000000     0.312550000000     0          
T        Si     0.348450000000     0.481800000000     0.437550000000     0          
T        Si     0.018200000000     0.151550000000     0.062450000000     0          
T        Si     0.348450000000     0.143200000000     0.187450000000     0          
T        Si     0.356800000000     0.473450000000     0.312450000000     0          
T        Si     0.026550000000     0.481800000000     0.437450000000     0          
T        Si     0.062550000000     0.018200000000     0.473450000000     0          
T        Si     0.312550000000     0.356800000000     0.151550000000     0          
T        Si     0.143200000000     0.437550000000     0.276550000000     0          
T        Si     0.062450000000     0.268200000000     0.401550000000     0          
T        Si     0.481800000000     0.187450000000     0.276550000000     0          
T        Si     0.062450000000     0.106800000000     0.473450000000     0          
T        Si     0.143200000000     0.437450000000     0.098450000000     0          
T        Si     0.231800000000     0.187550000000     0.348450000000     0          
T        Si     0.026550000000     0.437450000000     0.481800000000     0          
T        Si     0.062550000000     0.401550000000     0.356800000000     0          
T        Si     0.098450000000     0.437550000000     0.231800000000     0          
T        Si     0.062450000000     0.473450000000     0.106800000000     0          
T        Si     0.026550000000     0.437550000000     0.393200000000     0          
T        Si     0.062450000000     0.401550000000     0.268200000000     0          
T        Si     0.098450000000     0.437450000000     0.143200000000     0          
T        Si     0.062550000000     0.473450000000     0.018200000000     0          
T        Si     0.481800000000     0.026550000000     0.437450000000     0          
T        Si     0.473450000000     0.356800000000     0.312450000000     0          
T        Si     0.143200000000     0.348450000000     0.187450000000     0          
T        Si     0.151550000000     0.018200000000     0.062450000000     0          
T        Si     0.481800000000     0.348450000000     0.437550000000     0          
T        Si     0.151550000000     0.356800000000     0.312550000000     0          
T        Si     0.143200000000     0.026550000000     0.187550000000     0          
T        Si     0.473450000000     0.018200000000     0.062550000000     0          
T        Si     0.437450000000     0.481800000000     0.026550000000     0          
T        Si     0.187450000000     0.143200000000     0.348450000000     0          
T        Si     0.356800000000     0.062450000000     0.223450000000     0          
T        Si     0.437550000000     0.231800000000     0.098450000000     0          
T        Si     0.018200000000     0.312550000000     0.223450000000     0          
T        Si     0.437550000000     0.393200000000     0.026550000000     0          
T        Si     0.356800000000     0.062550000000     0.401550000000     0          
T        Si     0.268200000000     0.312450000000     0.151550000000     0          
T        Si     0.473450000000     0.312550000000     0.268200000000     0          
T        Si     0.437450000000     0.348450000000     0.393200000000     0          
T        Si     0.401550000000     0.312450000000     0.018200000000     0          
T        Si     0.437550000000     0.276550000000     0.143200000000     0          
T        Si     0.473450000000     0.312450000000     0.356800000000     0          
T        Si     0.437550000000     0.348450000000     0.481800000000     0          
T        Si     0.401550000000     0.312550000000     0.106800000000     0          
T        Si     0.437450000000     0.276550000000     0.231800000000     0          
T        Si     0.018200000000     0.223450000000     0.312550000000     0          
T        Si     0.026550000000     0.393200000000     0.437550000000     0          
T        Si     0.356800000000     0.401550000000     0.062550000000     0          
T        Si     0.348450000000     0.231800000000     0.187550000000     0          
T        Si     0.018200000000     0.401550000000     0.312450000000     0          
T        Si     0.348450000000     0.393200000000     0.437450000000     0          
T        Si     0.356800000000     0.223450000000     0.062450000000     0          
T        Si     0.026550000000     0.231800000000     0.187450000000     0          
T        Si     0.062550000000     0.268200000000     0.223450000000     0          
T        Si     0.312550000000     0.106800000000     0.401550000000     0          
T        Si     0.143200000000     0.187550000000     0.026550000000     0          
T        Si     0.062450000000     0.018200000000     0.151550000000     0          
T        Si     0.481800000000     0.437450000000     0.026550000000     0          
T        Si     0.062450000000     0.356800000000     0.223450000000     0          
T        Si     0.143200000000     0.187450000000     0.348450000000     0          
T        Si     0.231800000000     0.437550000000     0.098450000000     0          
T        Si     0.026550000000     0.187450000000     0.231800000000     0          
T        Si     0.062550000000     0.151550000000     0.106800000000     0          
T        Si     0.098450000000     0.187550000000     0.481800000000     0          
T        Si     0.062450000000     0.223450000000     0.356800000000     0          
T        Si     0.026550000000     0.187550000000     0.143200000000     0          
T        Si     0.062450000000     0.151550000000     0.018200000000     0          
T        Si     0.098450000000     0.187450000000     0.393200000000     0          
T        Si     0.062550000000     0.223450000000     0.268200000000     0          
T        Si     0.481800000000     0.276550000000     0.187450000000     0          
T        Si     0.473450000000     0.106800000000     0.062450000000     0          
T        Si     0.143200000000     0.098450000000     0.437450000000     0          
T        Si     0.151550000000     0.268200000000     0.312450000000     0          
T        Si     0.481800000000     0.098450000000     0.187550000000     0          
T        Si     0.151550000000     0.106800000000     0.062550000000     0          
T        Si     0.143200000000     0.276550000000     0.437550000000     0          
T        Si     0.473450000000     0.268200000000     0.312550000000     0          
T        Si     0.437450000000     0.231800000000     0.276550000000     0          
T        Si     0.187450000000     0.393200000000     0.098450000000     0          
T        Si     0.356800000000     0.312450000000     0.473450000000     0          
T        Si     0.437550000000     0.481800000000     0.348450000000     0          
T        Si     0.018200000000     0.062550000000     0.473450000000     0          
T        Si     0.437550000000     0.143200000000     0.276550000000     0          
T        Si     0.356800000000     0.312550000000     0.151550000000     0          
T        Si     0.268200000000     0.062450000000     0.401550000000     0          
T        Si     0.223450000000     0.062550000000     0.268200000000     0          
T        Si     0.187450000000     0.098450000000     0.393200000000     0          
T        Si     0.151550000000     0.062450000000     0.018200000000     0          
T        Si     0.187550000000     0.026550000000     0.143200000000     0          
T        Si     0.223450000000     0.062450000000     0.356800000000     0          
T        Si     0.187550000000     0.098450000000     0.481800000000     0          
T        Si     0.151550000000     0.062550000000     0.106800000000     0          
T        Si     0.187450000000     0.026550000000     0.231800000000     0          
T        Si     0.268200000000     0.473450000000     0.312550000000     0          
T        Si     0.276550000000     0.143200000000     0.437550000000     0          
T        Si     0.106800000000     0.151550000000     0.062550000000     0          
T        Si     0.098450000000     0.481800000000     0.187550000000     0          
T        Si     0.268200000000     0.151550000000     0.312450000000     0          
T        Si     0.098450000000     0.143200000000     0.437450000000     0          
T        Si     0.106800000000     0.473450000000     0.062450000000     0          
T        Si     0.276550000000     0.481800000000     0.187450000000     0          
T        Si     0.312550000000     0.018200000000     0.223450000000     0          
T        Si     0.062550000000     0.356800000000     0.401550000000     0          
T        Si     0.393200000000     0.437550000000     0.026550000000     0          
T        Si     0.312450000000     0.268200000000     0.151550000000     0          
T        Si     0.231800000000     0.187450000000     0.026550000000     0          
T        Si     0.312450000000     0.106800000000     0.223450000000     0          
T        Si     0.393200000000     0.437450000000     0.348450000000     0          
T        Si     0.481800000000     0.187550000000     0.098450000000     0          
T        Si     0.276550000000     0.437450000000     0.231800000000     0          
T        Si     0.312550000000     0.401550000000     0.106800000000     0          
T        Si     0.348450000000     0.437550000000     0.481800000000     0          
T        Si     0.312450000000     0.473450000000     0.356800000000     0          
T        Si     0.276550000000     0.437550000000     0.143200000000     0          
T        Si     0.312450000000     0.401550000000     0.018200000000     0          
T        Si     0.348450000000     0.437450000000     0.393200000000     0          
T        Si     0.312550000000     0.473450000000     0.268200000000     0          
T        Si     0.231800000000     0.026550000000     0.187450000000     0          
T        Si     0.223450000000     0.356800000000     0.062450000000     0          
T        Si     0.393200000000     0.348450000000     0.437450000000     0          
T        Si     0.401550000000     0.018200000000     0.312450000000     0          
T        Si     0.231800000000     0.348450000000     0.187550000000     0          
T        Si     0.401550000000     0.356800000000     0.062550000000     0          
T        Si     0.393200000000     0.026550000000     0.437550000000     0          
T        Si     0.223450000000     0.018200000000     0.312550000000     0          
T        Si     0.187450000000     0.481800000000     0.276550000000     0          
T        Si     0.437450000000     0.143200000000     0.098450000000     0          
T        Si     0.106800000000     0.062450000000     0.473450000000     0          
T        Si     0.187550000000     0.231800000000     0.348450000000     0          
T        Si     0.268200000000     0.312550000000     0.473450000000     0          
T        Si     0.187550000000     0.393200000000     0.276550000000     0          
T        Si     0.106800000000     0.062550000000     0.151550000000     0          
T        Si     0.018200000000     0.312450000000     0.401550000000     0          
T        Si     0.223450000000     0.312550000000     0.018200000000     0          
T        Si     0.187450000000     0.348450000000     0.143200000000     0          
T        Si     0.151550000000     0.312450000000     0.268200000000     0          
T        Si     0.187550000000     0.276550000000     0.393200000000     0          
T        Si     0.223450000000     0.312450000000     0.106800000000     0          
T        Si     0.187550000000     0.348450000000     0.231800000000     0          
T        Si     0.151550000000     0.312550000000     0.356800000000     0          
T        Si     0.187450000000     0.276550000000     0.481800000000     0          
T        Si     0.268200000000     0.223450000000     0.062550000000     0          
T        Si     0.276550000000     0.393200000000     0.187550000000     0          
T        Si     0.106800000000     0.401550000000     0.312550000000     0          
T        Si     0.098450000000     0.231800000000     0.437550000000     0          
T        Si     0.268200000000     0.401550000000     0.062450000000     0          
T        Si     0.098450000000     0.393200000000     0.187450000000     0          
T        Si     0.106800000000     0.223450000000     0.312450000000     0          
T        Si     0.276550000000     0.231800000000     0.437450000000     0          
T        Si     0.312550000000     0.268200000000     0.473450000000     0          
T        Si     0.062550000000     0.106800000000     0.151550000000     0          
T        Si     0.393200000000     0.187550000000     0.276550000000     0          
T        Si     0.312450000000     0.018200000000     0.401550000000     0          
T        Si     0.231800000000     0.437450000000     0.276550000000     0          
T        Si     0.312450000000     0.356800000000     0.473450000000     0          
T        Si     0.393200000000     0.187450000000     0.098450000000     0          
T        Si     0.481800000000     0.437550000000     0.348450000000     0          
T        Si     0.276550000000     0.187450000000     0.481800000000     0          
T        Si     0.312550000000     0.151550000000     0.356800000000     0          
T        Si     0.348450000000     0.187550000000     0.231800000000     0          
T        Si     0.312450000000     0.223450000000     0.106800000000     0          
T        Si     0.276550000000     0.187550000000     0.393200000000     0          
T        Si     0.312450000000     0.151550000000     0.268200000000     0          
T        Si     0.348450000000     0.187450000000     0.143200000000     0          
T        Si     0.312550000000     0.223450000000     0.018200000000     0          
T        Si     0.231800000000     0.276550000000     0.437450000000     0          
T        Si     0.223450000000     0.106800000000     0.312450000000     0          
T        Si     0.393200000000     0.098450000000     0.187450000000     0          
T        Si     0.401550000000     0.268200000000     0.062450000000     0          
T        Si     0.231800000000     0.098450000000     0.437550000000     0          
T        Si     0.401550000000     0.106800000000     0.312550000000     0          
T        Si     0.393200000000     0.276550000000     0.187550000000     0          
T        Si     0.223450000000     0.268200000000     0.062550000000     0          
T        Si     0.187450000000     0.231800000000     0.026550000000     0          
T        Si     0.437450000000     0.393200000000     0.348450000000     0          
T        Si     0.106800000000     0.312450000000     0.223450000000     0          
T        Si     0.187550000000     0.481800000000     0.098450000000     0          
T        Si     0.268200000000     0.062550000000     0.223450000000     0          
T        Si     0.187550000000     0.143200000000     0.026550000000     0          
T        Si     0.106800000000     0.312550000000     0.401550000000     0          
T        Si     0.018200000000     0.062450000000     0.151550000000     0          
T        Si     0.473450000000     0.062550000000     0.518200000000     0          
T        Si     0.437450000000     0.098450000000     0.643200000000     0          
T        Si     0.401550000000     0.062450000000     0.768200000000     0          
T        Si     0.437550000000     0.026550000000     0.893200000000     0          
T        Si     0.473450000000     0.062450000000     0.606800000000     0          
T        Si     0.437550000000     0.098450000000     0.731800000000     0          
T        Si     0.401550000000     0.062550000000     0.856800000000     0          
T        Si     0.437450000000     0.026550000000     0.981800000000     0          
T        Si     0.018200000000     0.473450000000     0.562550000000     0          
T        Si     0.026550000000     0.143200000000     0.687550000000     0          
T        Si     0.356800000000     0.151550000000     0.812550000000     0          
T        Si     0.348450000000     0.481800000000     0.937550000000     0          
T        Si     0.018200000000     0.151550000000     0.562450000000     0          
T        Si     0.348450000000     0.143200000000     0.687450000000     0          
T        Si     0.356800000000     0.473450000000     0.812450000000     0          
T        Si     0.026550000000     0.481800000000     0.937450000000     0          
T        Si     0.062550000000     0.018200000000     0.973450000000     0          
T        Si     0.312550000000     0.356800000000     0.651550000000     0          
T        Si     0.143200000000     0.437550000000     0.776550000000     0          
T        Si     0.062450000000     0.268200000000     0.901550000000     0          
T        Si     0.481800000000     0.187450000000     0.776550000000     0          
T        Si     0.062450000000     0.106800000000     0.973450000000     0          
T        Si     0.143200000000     0.437450000000     0.598450000000     0          
T        Si     0.231800000000     0.187550000000     0.848450000000     0          
T        Si     0.026550000000     0.437450000000     0.981800000000     0          
T        Si     0.062550000000     0.401550000000     0.856800000000     0          
T        Si     0.098450000000     0.437550000000     0.731800000000     0          
T        Si     0.062450000000     0.473450000000     0.606800000000     0          
T        Si     0.026550000000     0.437550000000     0.893200000000     0          
T        Si     0.062450000000     0.401550000000     0.768200000000     0          
T        Si     0.098450000000     0.437450000000     0.643200000000     0          
T        Si     0.062550000000     0.473450000000     0.518200000000     0          
T        Si     0.481800000000     0.026550000000     0.937450000000     0          
T        Si     0.473450000000     0.356800000000     0.812450000000     0          
T        Si     0.143200000000     0.348450000000     0.687450000000     0          
T        Si     0.151550000000     0.018200000000     0.562450000000     0          
T        Si     0.481800000000     0.348450000000     0.937550000000     0          
T        Si     0.151550000000     0.356800000000     0.812550000000     0          
T        Si     0.143200000000     0.026550000000     0.687550000000     0          
T        Si     0.473450000000     0.018200000000     0.562550000000     0          
T        Si     0.437450000000     0.481800000000     0.526550000000     0          
T        Si     0.187450000000     0.143200000000     0.848450000000     0          
T        Si     0.356800000000     0.062450000000     0.723450000000     0          
T        Si     0.437550000000     0.231800000000     0.598450000000     0          
T        Si     0.018200000000     0.312550000000     0.723450000000     0          
T        Si     0.437550000000     0.393200000000     0.526550000000     0          
T        Si     0.356800000000     0.062550000000     0.901550000000     0          
T        Si     0.268200000000     0.312450000000     0.651550000000     0          
T        Si     0.473450000000     0.312550000000     0.768200000000     0          
T        Si     0.437450000000     0.348450000000     0.893200000000     0          
T        Si     0.401550000000     0.312450000000     0.518200000000     0          
T        Si     0.437550000000     0.276550000000     0.643200000000     0          
T        Si     0.473450000000     0.312450000000     0.856800000000     0          
T        Si     0.437550000000     0.348450000000     0.981800000000     0          
T        Si     0.401550000000     0.312550000000     0.606800000000     0          
T        Si     0.437450000000     0.276550000000     0.731800000000     0          
T        Si     0.018200000000     0.223450000000     0.812550000000     0          
T        Si     0.026550000000     0.393200000000     0.937550000000     0          
T        Si     0.356800000000     0.401550000000     0.562550000000     0          
T        Si     0.348450000000     0.231800000000     0.687550000000     0          
T        Si     0.018200000000     0.401550000000     0.812450000000     0          
T        Si     0.348450000000     0.393200000000     0.937450000000     0          
T        Si     0.356800000000     0.223450000000     0.562450000000     0          
T        Si     0.026550000000     0.231800000000     0.687450000000     0          
T        Si     0.062550000000     0.268200000000     0.723450000000     0          
T        Si     0.312550000000     0.106800000000     0.901550000000     0          
T        Si     0.143200000000     0.187550000000     0.526550000000     0          
T        Si     0.062450000000     0.018200000000     0.651550000000     0          
T        Si     0.481800000000     0.437450000000     0.526550000000     0          
T        Si     0.062450000000     0.356800000000     0.723450000000     0          
T        Si     0.143200000000     0.187450000000     0.848450000000     0          
T        Si     0.231800000000     0.437550000000     0.598450000000     0          
T        Si     0.026550000000     0.187450000000     0.731800000000     0          
T        Si     0.062550000000     0.151550000000     0.606800000000     0          
T        Si     0.098450000000     0.187550000000     0.981800000000     0          
T        Si     0.062450000000     0.223450000000     0.856800000000     0          
T        Si     0.026550000000     0.187550000000     0.643200000000     0          
T        Si     0.062450000000     0.151550000000     0.518200000000     0          
T        Si     0.098450000000     0.187450000000     0.893200000000     0          
T        Si     0.062550000000     0.223450000000     0.768200000000     0          
T        Si     0.481800000000     0.276550000000     0.687450000000     0          
T        Si     0.473450000000     0.106800000000     0.562450000000     0          
T        Si     0.143200000000     0.098450000000     0.937450000000     0          
T        Si     0.151550000000     0.268200000000     0.812450000000     0          
T        Si     0.481800000000     0.098450000000     0.687550000000     0          
T        Si     0.151550000000     0.106800000000     0.562550000000     0          
T        Si     0.143200000000     0.276550000000     0.937550000000     0          
T        Si     0.473450000000     0.268200000000     0.812550000000     0          
T        Si     0.437450000000     0.231800000000     0.776550000000     0          
T        Si     0.187450000000     0.393200000000     0.598450000000     0          
T        Si     0.356800000000     0.312450000000     0.973450000000     0          
T        Si     0.437550000000     0.481800000000     0.848450000000     0          
T        Si     0.018200000000     0.062550000000     0.973450000000     0          
T        Si     0.437550000000     0.143200000000     0.776550000000     0          
T        Si     0.356800000000     0.312550000000     0.651550000000     0          
T        Si     0.268200000000     0.062450000000     0.901550000000     0          
T        Si     0.223450000000     0.062550000000     0.768200000000     0          
T        Si     0.187450000000     0.098450000000     0.893200000000     0          
T        Si     0.151550000000     0.062450000000     0.518200000000     0          
T        Si     0.187550000000     0.026550000000     0.643200000000     0          
T        Si     0.223450000000     0.062450000000     0.856800000000     0          
T        Si     0.187550000000     0.098450000000     0.981800000000     0          
T        Si     0.151550000000     0.062550000000     0.606800000000     0          
T        Si     0.187450000000     0.026550000000     0.731800000000     0          
T        Si     0.268200000000     0.473450000000     0.812550000000     0          
T        Si     0.276550000000     0.143200000000     0.937550000000     0          
T        Si     0.106800000000     0.151550000000     0.562550000000     0          
T        Si     0.098450000000     0.481800000000     0.687550000000     0          
T        Si     0.268200000000     0.151550000000     0.812450000000     0          
T        Si     0.098450000000     0.143200000000     0.937450000000     0          
T        Si     0.106800000000     0.473450000000     0.562450000000     0          
T        Si     0.276550000000     0.481800000000     0.687450000000     0          
T        Si     0.312550000000     0.018200000000     0.723450000000     0          
T        Si     0.062550000000     0.356800000000     0.901550000000     0          
T        Si     0.393200000000     0.437550000000     0.526550000000     0          
T        Si     0.312450000000     0.268200000000     0.651550000000     0          
T        Si     0.231800000000     0.187450000000     0.526550000000     0          
T        Si     0.312450000000     0.106800000000     0.723450000000     0          
T        Si     0.393200000000     0.437450000000     0.848450000000     0          
T        Si     0.481800000000     0.187550000000     0.598450000000     0          
T        Si     0.276550000000     0.437450000000     0.731800000000     0          
T        Si     0.312550000000     0.401550000000     0.606800000000     0          
T        Si     0.348450000000     0.437550000000     0.981800000000     0          
T        Si     0.312450000000     0.473450000000     0.856800000000     0          
T        Si     0.276550000000     0.437550000000     0.643200000000     0          
T        Si     0.312450000000     0.401550000000     0.518200000000     0          
T        Si     0.348450000000     0.437450000000     0.893200000000     0          
T        Si     0.312550000000     0.473450000000     0.768200000000     0          
T        Si     0.231800000000     0.026550000000     0.687450000000     0          
T        Si     0.223450000000     0.356800000000     0.562450000000     0          
T        Si     0.393200000000     0.348450000000     0.937450000000     0          
T        Si     0.401550000000     0.018200000000     0.812450000000     0          
T        Si     0.231800000000     0.348450000000     0.687550000000     0          
T        Si     0.401550000000     0.356800000000     0.562550000000     0          
T        Si     0.393200000000     0.026550000000     0.937550000000     0          
T        Si     0.223450000000     0.018200000000     0.812550000000     0          
T        Si     0.187450000000     0.481800000000     0.776550000000     0          
T        Si     0.437450000000     0.143200000000     0.598450000000     0          
T        Si     0.106800000000     0.062450000000     0.973450000000     0          
T        Si     0.187550000000     0.231800000000     0.848450000000     0          
T        Si     0.268200000000     0.312550000000     0.973450000000     0          
T        Si     0.187550000000     0.393200000000     0.776550000000     0          
T        Si     0.106800000000     0.062550000000     0.651550000000     0          
T        Si     0.018200000000     0.312450000000     0.901550000000     0          
T        Si     0.223450000000     0.312550000000     0.518200000000     0          
T        Si     0.187450000000     0.348450000000     0.643200000000     0          
T        Si     0.151550000000     0.312450000000     0.768200000000     0          
T        Si     0.187550000000     0.276550000000     0.893200000000     0          
T        Si     0.223450000000     0.312450000000     0.606800000000     0          
T        Si     0.187550000000     0.348450000000     0.731800000000     0          
T        Si     0.151550000000     0.312550000000     0.856800000000     0          
T        Si     0.187450000000     0.276550000000     0.981800000000     0          
T        Si     0.268200000000     0.223450000000     0.562550000000     0          
T        Si     0.276550000000     0.393200000000     0.687550000000     0          
T        Si     0.106800000000     0.401550000000     0.812550000000     0          
T        Si     0.098450000000     0.231800000000     0.937550000000     0          
T        Si     0.268200000000     0.401550000000     0.562450000000     0          
T        Si     0.098450000000     0.393200000000     0.687450000000     0          
T        Si     0.106800000000     0.223450000000     0.812450000000     0          
T        Si     0.276550000000     0.231800000000     0.937450000000     0          
T        Si     0.312550000000     0.268200000000     0.973450000000     0          
T        Si     0.062550000000     0.106800000000     0.651550000000     0          
T        Si     0.393200000000     0.187550000000     0.776550000000     0          
T        Si     0.312450000000     0.018200000000     0.901550000000     0          
T        Si     0.231800000000     0.437450000000     0.776550000000     0          
T        Si     0.312450000000     0.356800000000     0.973450000000     0          
T        Si     0.393200000000     0.187450000000     0.598450000000     0          
T        Si     0.481800000000     0.437550000000     0.848450000000     0          
T        Si     0.276550000000     0.187450000000     0.981800000000     0          
T        Si     0.312550000000     0.151550000000     0.856800000000     0          
T        Si     0.348450000000     0.187550000000     0.731800000000     0          
T        Si     0.312450000000     0.223450000000     0.606800000000     0          
T        Si     0.276550000000     0.187550000000     0.893200000000     0          
T        Si     0.312450000000     0.151550000000     0.768200000000     0          
T        Si     0.348450000000     0.187450000000     0.643200000000     0          
T        Si     0.312550000000     0.223450000000     0.518200000000     0          
T        Si     0.231800000000     0.276550000000     0.937450000000     0          
T        Si     0.223450000000     0.106800000000     0.812450000000     0          
T        Si     0.393200000000     0.098450000000     0.687450000000     0          
T        Si     0.401550000000     0.268200000000     0.562450000000     0          
T        Si     0.231800000000     0.098450000000     0.937550000000     0          
T        Si     0.401550000000     0.106800000000     0.812550000000     0          
T        Si     0.393200000000     0.276550000000     0.687550000000     0          
T        Si     0.223450000000     0.268200000000     0.562550000000     0          
T        Si     0.187450000000     0.231800000000     0.526550000000     0          
T        Si     0.437450000000     0.393200000000     0.848450000000     0          
T        Si     0.106800000000     0.312450000000     0.723450000000     0          
T        Si     0.187550000000     0.481800000000     0.598450000000     0          
T        Si     0.268200000000     0.062550000000     0.723450000000     0          
T        Si     0.187550000000     0.143200000000     0.526550000000     0          
T        Si     0.106800000000     0.312550000000     0.901550000000     0          
T        Si     0.018200000000     0.062450000000     0.651550000000     0          
T        Si     0.473450000000     0.562550000000     0.018200000000     0          
T        Si     0.437450000000     0.598450000000     0.143200000000     0          
T        Si     0.401550000000     0.562450000000     0.268200000000     0          
T        Si     0.437550000000     0.526550000000     0.393200000000     0          
T        Si     0.473450000000     0.562450000000     0.106800000000     0          
T        Si     0.437550000000     0.598450000000     0.231800000000     0          
T        Si     0.401550000000     0.562550000000     0.356800000000     0          
T        Si     0.437450000000     0.526550000000     0.481800000000     0          
T        Si     0.018200000000     0.973450000000     0.062550000000     0          
T        Si     0.026550000000     0.643200000000     0.187550000000     0          
T        Si     0.356800000000     0.651550000000     0.312550000000     0          
T        Si     0.348450000000     0.981800000000     0.437550000000     0          
T        Si     0.018200000000     0.651550000000     0.062450000000     0          
T        Si     0.348450000000     0.643200000000     0.187450000000     0          
T        Si     0.356800000000     0.973450000000     0.312450000000     0          
T        Si     0.026550000000     0.981800000000     0.437450000000     0          
T        Si     0.062550000000     0.518200000000     0.473450000000     0          
T        Si     0.312550000000     0.856800000000     0.151550000000     0          
T        Si     0.143200000000     0.937550000000     0.276550000000     0          
T        Si     0.062450000000     0.768200000000     0.401550000000     0          
T        Si     0.481800000000     0.687450000000     0.276550000000     0          
T        Si     0.062450000000     0.606800000000     0.473450000000     0          
T        Si     0.143200000000     0.937450000000     0.098450000000     0          
T        Si     0.231800000000     0.687550000000     0.348450000000     0          
T        Si     0.026550000000     0.937450000000     0.481800000000     0          
T        Si     0.062550000000     0.901550000000     0.356800000000     0          
T        Si     0.098450000000     0.937550000000     0.231800000000     0          
T        Si     0.062450000000     0.973450000000     0.106800000000     0          
T        Si     0.026550000000     0.937550000000     0.393200000000     0          
T        Si     0.062450000000     0.901550000000     0.268200000000     0          
T        Si     0.098450000000     0.937450000000     0.143200000000     0          
T        Si     0.062550000000     0.973450000000     0.018200000000     0          
T        Si     0.481800000000     0.526550000000     0.437450000000     0          
T        Si     0.473450000000     0.856800000000     0.312450000000     0          
T        Si     0.143200000000     0.848450000000     0.187450000000     0          
T        Si     0.151550000000     0.518200000000     0.062450000000     0          
T        Si     0.481800000000     0.848450000000     0.437550000000     0          
T        Si     0.151550000000     0.856800000000     0.312550000000     0          
T        Si     0.143200000000     0.526550000000     0.187550000000     0          
T        Si     0.473450000000     0.518200000000     0.062550000000     0          
T        Si     0.437450000000     0.981800000000     0.026550000000     0          
T        Si     0.187450000000     0.643200000000     0.348450000000     0          
T        Si     0.356800000000     0.562450000000     0.223450000000     0          
T        Si     0.437550000000     0.731800000000     0.098450000000     0          
T        Si     0.018200000000     0.812550000000     0.223450000000     0          
T        Si     0.437550000000     0.893200000000     0.026550000000     0          
T        Si     0.356800000000     0.562550000000     0.401550000000     0          
T        Si     0.268200000000     0.812450000000     0.151550000000     0          
T        Si     0.473450000000     0.812550000000     0.268200000000     0          
T        Si     0.437450000000     0.848450000000     0.393200000000     0          
T        Si     0.401550000000     0.812450000000     0.018200000000     0          
T        Si     0.437550000000     0.776550000000     0.143200000000     0          
T        Si     0.473450000000     0.812450000000     0.356800000000     0          
T        Si     0.437550000000     0.848450000000     0.481800000000     0          
T        Si     0.401550000000     0.812550000000     0.106800000000     0          
T        Si     0.437450000000     0.776550000000     0.231800000000     0          
T        Si     0.018200000000     0.723450000000     0.312550000000     0          
T        Si     0.026550000000     0.893200000000     0.437550000000     0          
T        Si     0.356800000000     0.901550000000     0.062550000000     0          
T        Si     0.348450000000     0.731800000000     0.187550000000     0          
T        Si     0.018200000000     0.901550000000     0.312450000000     0          
T        Si     0.348450000000     0.893200000000     0.437450000000     0          
T        Si     0.356800000000     0.723450000000     0.062450000000     0          
T        Si     0.026550000000     0.731800000000     0.187450000000     0          
T        Si     0.062550000000     0.768200000000     0.223450000000     0          
T        Si     0.312550000000     0.606800000000     0.401550000000     0          
T        Si     0.143200000000     0.687550000000     0.026550000000     0          
T        Si     0.062450000000     0.518200000000     0.151550000000     0          
T        Si     0.481800000000     0.937450000000     0.026550000000     0          
T        Si     0.062450000000     0.856800000000     0.223450000000     0          
T        Si     0.143200000000     0.687450000000     0.348450000000     0          
T        Si     0.231800000000     0.937550000000     0.098450000000     0          
T        Si     0.026550000000     0.687450000000     0.231800000000     0          
T        Si     0.062550000000     0.651550000000     0.106800000000     0          
T        Si     0.098450000000     0.687550000000     0.481800000000     0          
T        Si     0.062450000000     0.723450000000     0.356800000000     0          
T        Si     0.026550000000     0.687550000000     0.143200000000     0          
T        Si     0.062450000000     0.651550000000     0.018200000000     0          
T        Si     0.098450000000     0.687450000000     0.393200000000     0          
T        Si     0.062550000000     0.723450000000     0.268200000000     0          
T        Si     0.481800000000     0.776550000000     0.187450000000     0          
T        Si     0.473450000000     0.606800000000     0.062450000000     0          
T        Si     0.143200000000     0.598450000000     0.437450000000     0          
T        Si     0.151550000000     0.768200000000     0.312450000000     0          
T        Si     0.481800000000     0.598450000000     0.187550000000     0          
T        Si     0.151550000000     0.606800000000     0.062550000000     0          
T        Si     0.143200000000     0.776550000000     0.437550000000     0          
T        Si     0.473450000000     0.768200000000     0.312550000000     0          
T        Si     0.437450000000     0.731800000000     0.276550000000     0          
T        Si     0.187450000000     0.893200000000     0.098450000000     0          
T        Si     0.356800000000     0.812450000000     0.473450000000     0          
T        Si     0.437550000000     0.981800000000     0.348450000000     0          
T        Si     0.018200000000     0.562550000000     0.473450000000     0          
T        Si     0.437550000000     0.643200000000     0.276550000000     0          
T        Si     0.356800000000     0.812550000000     0.151550000000     0          
T        Si     0.268200000000     0.562450000000     0.401550000000     0          
T        Si     0.223450000000     0.562550000000     0.268200000000     0          
T        Si     0.187450000000     0.598450000000     0.393200000000     0          
T        Si     0.151550000000     0.562450000000     0.018200000000     0          
T        Si     0.187550000000     0.526550000000     0.143200000000     0          
T        Si     0.223450000000     0.562450000000     0.356800000000     0          
T        Si     0.187550000000     0.598450000000     0.481800000000     0          
T        Si     0.151550000000     0.562550000000     0.106800000000     0          
T        Si     0.187450000000     0.526550000000     0.231800000000     0          
T        Si     0.268200000000     0.973450000000     0.312550000000     0          
T        Si     0.276550000000     0.643200000000     0.437550000000     0          
T        Si     0.106800000000     0.651550000000     0.062550000000     0          
T        Si     0.098450000000     0.981800000000     0.187550000000     0          
T        Si     0.268200000000     0.651550000000     0.312450000000     0          
T        Si     0.098450000000     0.643200000000     0.437450000000     0          
T        Si     0.106800000000     0.973450000000     0.062450000000     0          
T        Si     0.276550000000     0.981800000000     0.187450000000     0          
T        Si     0.312550000000     0.518200000000     0.223450000000     0          
T        Si     0.062550000000     0.856800000000     0.401550000000     0          
T        Si     0.393200000000     0.937550000000     0.026550000000     0          
T        Si     0.312450000000     0.768200000000     0.151550000000     0          
T        Si     0.231800000000     0.687450000000     0.026550000000     0          
T        Si     0.312450000000     0.606800000000     0.223450000000     0          
T        Si     0.393200000000     0.937450000000     0.348450000000     0          
T        Si     0.481800000000     0.687550000000     0.098450000000     0          
T        Si     0.276550000000     0.937450000000     0.231800000000     0          
T        Si     0.312550000000     0.901550000000     0.106800000000     0          
T        Si     0.348450000000     0.937550000000     0.481800000000     0          
T        Si     0.312450000000     0.973450000000     0.356800000000     0          
T        Si     0.276550000000     0.937550000000     0.143200000000     0          
T        Si     0.312450000000     0.901550000000     0.018200000000     0          
T        Si     0.348450000000     0.937450000000     0.393200000000     0          
T        Si     0.312550000000     0.973450000000     0.268200000000     0          
T        Si     0.231800000000     0.526550000000     0.187450000000     0          
T        Si     0.223450000000     0.856800000000     0.062450000000     0          
T        Si     0.393200000000     0.848450000000     0.437450000000     0          
T        Si     0.401550000000     0.518200000000     0.312450000000     0          
T        Si     0.231800000000     0.848450000000     0.187550000000     0          
T        Si     0.401550000000     0.856800000000     0.062550000000     0          
T        Si     0.393200000000     0.526550000000     0.437550000000     0          
T        Si     0.223450000000     0.518200000000     0.312550000000     0          
T        Si     0.187450000000     0.981800000000     0.276550000000     0          
T        Si     0.437450000000     0.643200000000     0.098450000000     0          
T        Si     0.106800000000     0.562450000000     0.473450000000     0          
T        Si     0.187550000000     0.731800000000     0.348450000000     0          
T        Si     0.268200000000     0.812550000000     0.473450000000     0          
T        Si     0.187550000000     0.893200000000     0.276550000000     0          
T        Si     0.106800000000     0.562550000000     0.151550000000     0          
T        Si     0.018200000000     0.812450000000     0.401550000000     0          
T        Si     0.223450000000     0.812550000000     0.018200000000     0          
T        Si     0.187450000000     0.848450000000     0.143200000000     0          
T        Si     0.151550000000     0.812450000000     0.268200000000     0          
T        Si     0.187550000000     0.776550000000     0.393200000000     0          
T        Si     0.223450000000     0.812450000000     0.106800000000     0          
T        Si     0.187550000000     0.848450000000     0.231800000000     0          
T        Si     0.151550000000     0.812550000000     0.356800000000     0          
T        Si     0.187450000000     0.776550000000     0.481800000000     0          
T        Si     0.268200000000     0.723450000000     0.062550000000     0          
T        Si     0.276550000000     0.893200000000     0.187550000000     0          
T        Si     0.106800000000     0.901550000000     0.312550000000     0          
T        Si     0.098450000000     0.731800000000     0.437550000000     0          
T        Si     0.268200000000     0.901550000000     0.062450000000     0          
T        Si     0.098450000000     0.893200000000     0.187450000000     0          
T        Si     0.106800000000     0.723450000000     0.312450000000     0          
T        Si     0.276550000000     0.731800000000     0.437450000000     0          
T        Si     0.312550000000     0.768200000000     0.473450000000     0          
T        Si     0.062550000000     0.606800000000     0.151550000000     0          
T        Si     0.393200000000     0.687550000000     0.276550000000     0          
T        Si     0.312450000000     0.518200000000     0.401550000000     0          
T        Si     0.231800000000     0.937450000000     0.276550000000     0          
T        Si     0.312450000000     0.856800000000     0.473450000000     0          
T        Si     0.393200000000     0.687450000000     0.098450000000     0          
T        Si     0.481800000000     0.937550000000     0.348450000000     0          
T        Si     0.276550000000     0.687450000000     0.481800000000     0          
T        Si     0.312550000000     0.651550000000     0.356800000000     0          
T        Si     0.348450000000     0.687550000000     0.231800000000     0          
T        Si     0.312450000000     0.723450000000     0.106800000000     0          
T        Si     0.276550000000     0.687550000000     0.393200000000     0          
T        Si     0.312450000000     0.651550000000     0.268200000000     0          
T        Si     0.348450000000     0.687450000000     0.143200000000     0          
T        Si     0.312550000000     0.723450000000     0.018200000000     0          
T        Si     0.231800000000     0.776550000000     0.437450000000     0          
T        Si     0.223450000000     0.606800000000     0.312450000000     0          
T        Si     0.393200000000     0.598450000000     0.187450000000     0          
T        Si     0.401550000000     0.768200000000     0.062450000000     0          
T        Si     0.231800000000     0.598450000000     0.437550000000     0          
T        Si     0.401550000000     0.606800000000     0.312550000000     0          
T        Si     0.393200000000     0.776550000000     0.187550000000     0          
T        Si     0.223450000000     0.768200000000     0.062550000000     0          
T        Si     0.187450000000     0.731800000000     0.026550000000     0          
T        Si     0.437450000000     0.893200000000     0.348450000000     0          
T        Si     0.106800000000     0.812450000000     0.223450000000     0          
T        Si     0.187550000000     0.981800000000     0.098450000000     0          
T        Si     0.268200000000     0.562550000000     0.223450000000     0          
T        Si     0.187550000000     0.643200000000     0.026550000000     0          
T        Si     0.106800000000     0.812550000000     0.401550000000     0          
T        Si     0.018200000000     0.562450000000     0.151550000000     0          
T        Si     0.473450000000     0.562550000000     0.518200000000     0          
T        Si     0.437450000000     0.598450000000     0.643200000000     0          
T        Si     0.401550000000     0.562450000000     0.768200000000     0          
T        Si     0.437550000000     0.526550000000     0.893200000000     0          
T        Si     0.473450000000     0.562450000000     0.606800000000     0          
T        Si     0.437550000000     0.598450000000     0.731800000000     0          
T        Si     0.401550000000     0.562550000000     0.856800000000     0          
T        Si     0.437450000000     0.526550000000     0.981800000000     0          
T        Si     0.018200000000     0.973450000000     0.562550000000     0          
T        Si     0.026550000000     0.643200000000     0.687550000000     0          
T        Si     0.356800000000     0.651550000000     0.812550000000     0          
T        Si     0.348450000000     0.981800000000     0.937550000000     0          
T        Si     0.018200000000     0.651550000000     0.562450000000     0          
T        Si     0.348450000000     0.643200000000     0.687450000000     0          
T        Si     0.356800000000     0.973450000000     0.812450000000     0          
T        Si     0.026550000000     0.981800000000     0.937450000000     0          
T        Si     0.062550000000     0.518200000000     0.973450000000     0          
T        Si     0.312550000000     0.856800000000     0.651550000000     0          
T        Si     0.143200000000     0.937550000000     0.776550000000     0          
T        Si     0.062450000000     0.768200000000     0.901550000000     0          
T        Si     0.481800000000     0.687450000000     0.776550000000     0          
T        Si     0.062450000000     0.606800000000     0.973450000000     0          
T        Si     0.143200000000     0.937450000000     0.598450000000     0          
T        Si     0.231800000000     0.687550000000     0.848450000000     0          
T        Si     0.026550000000     0.937450000000     0.981800000000     0          
T        Si     0.062550000000     0.901550000000     0.856800000000     0          
T        Si     0.098450000000     0.937550000000     0.731800000000     0          
T        Si     0.062450000000     0.973450000000     0.606800000000     0          
T        Si     0.026550000000     0.937550000000     0.893200000000     0          
T        Si     0.062450000000     0.901550000000     0.768200000000     0          
T        Si     0.098450000000     0.937450000000     0.643200000000     0          
T        Si     0.062550000000     0.973450000000     0.518200000000     0          
T        Si     0.481800000000     0.526550000000     0.937450000000     0          
T        Si     0.473450000000     0.856800000000     0.812450000000     0          
T        Si     0.143200000000     0.848450000000     0.687450000000     0          
T        Si     0.151550000000     0.518200000000     0.562450000000     0          
T        Si     0.481800000000     0.848450000000     0.937550000000     0          
T        Si     0.151550000000     0.856800000000     0.812550000000     0          
T        Si     0.143200000000     0.526550000000     0.687550000000     0          
T        Si     0.473450000000     0.518200000000     0.562550000000     0          
T        Si     0.437450000000     0.981800000000     0.526550000000     0          
T        Si     0.187450000000     0.643200000000     0.848450000000     0          
T        Si     0.356800000000     0.562450000000     0.723450000000     0          
T        Si     0.437550000000     0.731800000000     0.598450000000     0          
T        Si     0.018200000000     0.812550000000     0.723450000000     0          
T        Si     0.437550000000     0.893200000000     0.526550000000     0          
T        Si     0.356800000000     0.562550000000     0.901550000000     0          
T        Si     0.268200000000     0.812450000000     0.651550000000     0          
T        Si     0.473450000000     0.812550000000     0.768200000000     0          
T        Si     0.437450000000     0.848450000000     0.893200000000     0          
T        Si     0.401550000000     0.812450000000     0.518200000000     0          
T        Si     0.437550000000     0.776550000000     0.643200000000     0          
T        Si     0.473450000000     0.812450000000     0.856800000000     0          
T        Si     0.437550000000     0.848450000000     0.981800000000     0          
T        Si     0.401550000000     0.812550000000     0.606800000000     0          
T        Si     0.437450000000     0.776550000000     0.731800000000     0          
T        Si     0.018200000000     0.723450000000     0.812550000000     0          
T        Si     0.026550000000     0.893200000000     0.937550000000     0          
T        Si     0.356800000000     0.901550000000     0.562550000000     0          
T        Si     0.348450000000     0.731800000000     0.687550000000     0          
T        Si     0.018200000000     0.901550000000     0.812450000000     0          
T        Si     0.348450000000     0.893200000000     0.937450000000     0          
T        Si     0.356800000000     0.723450000000     0.562450000000     0          
T        Si     0.026550000000     0.731800000000     0.687450000000     0          
T        Si     0.062550000000     0.768200000000     0.723450000000     0          
T        Si     0.312550000000     0.606800000000     0.901550000000     0          
T        Si     0.143200000000     0.687550000000     0.526550000000     0          
T        Si     0.062450000000     0.518200000000     0.651550000000     0          
T        Si     0.481800000000     0.937450000000     0.526550000000     0          
T        Si     0.062450000000     0.856800000000     0.723450000000     0          
T        Si     0.143200000000     0.687450000000     0.848450000000     0          
T        Si     0.231800000000     0.937550000000     0.598450000000     0          
T        Si     0.026550000000     0.687450000000     0.731800000000     0          
T        Si     0.062550000000     0.651550000000     0.606800000000     0          
T        Si     0.098450000000     0.687550000000     0.981800000000     0          
T        Si     0.062450000000     0.723450000000     0.856800000000     0          
T        Si     0.026550000000     0.687550000000     0.643200000000     0          
T        Si     0.062450000000     0.651550000000     0.518200000000     0          
T        Si     0.098450000000     0.687450000000     0.893200000000     0          
T        Si     0.062550000000     0.723450000000     0.768200000000     0          
T        Si     0.481800000000     0.776550000000     0.687450000000     0          
T        Si     0.473450000000     0.606800000000     0.562450000000     0          
T        Si     0.143200000000     0.598450000000     0.937450000000     0          
T        Si     0.151550000000     0.768200000000     0.812450000000     0          
T        Si     0.481800000000     0.598450000000     0.687550000000     0          
T        Si     0.151550000000     0.606800000000     0.562550000000     0          
T        Si     0.143200000000     0.776550000000     0.937550000000     0          
T        Si     0.473450000000     0.768200000000     0.812550000000     0          
T        Si     0.437450000000     0.731800000000     0.776550000000     0          
T        Si     0.187450000000     0.893200000000     0.598450000000     0          
T        Si     0.356800000000     0.812450000000     0.973450000000     0          
T        Si     0.437550000000     0.981800000000     0.848450000000     0          
T        Si     0.018200000000     0.562550000000     0.973450000000     0          
T        Si     0.437550000000     0.643200000000     0.776550000000     0          
T        Si     0.356800000000     0.812550000000     0.651550000000     0          
T        Si     0.268200000000     0.562450000000     0.901550000000     0          
T        Si     0.223450000000     0.562550000000     0.768200000000     0          
T        Si     0.187450000000     0.598450000000     0.893200000000     0          
T        Si     0.151550000000     0.562450000000     0.518200000000     0          
T        Si     0.187550000000     0.526550000000     0.643200000000     0          
T        Si     0.223450000000     0.562450000000     0.856800000000     0          
T        Si     0.187550000000     0.598450000000     0.981800000000     0          
T        Si     0.151550000000     0.562550000000     0.606800000000     0          
T        Si     0.187450000000     0.526550000000     0.731800000000     0          
T        Si     0.268200000000     0.973450000000     0.812550000000     0          
T        Si     0.276550000000     0.643200000000     0.937550000000     0          
T        Si     0.106800000000     0.651550000000     0.562550000000     0          
T        Si     0.098450000000     0.981800000000     0.687550000000     0          
T        Si     0.268200000000     0.651550000000     0.812450000000     0          
T        Si     0.098450000000     0.643200000000     0.937450000000     0          
T        Si     0.106800000000     0.973450000000     0.562450000000     0          
T        Si     0.276550000000     0.981800000000     0.687450000000     0          
T        Si     0.312550000000     0.518200000000     0.723450000000     0          
T        Si     0.062550000000     0.856800000000     0.901550000000     0          
T        Si     0.393200000000     0.937550000000     0.526550000000     0          
T        Si     0.312450000000     0.768200000000     0.651550000000     0          
T        Si     0.231800000000     0.687450000000     0.526550000000     0          
T        Si     0.312450000000     0.606800000000     0.723450000000     0          
T        Si     0.393200000000     0.937450000000     0.848450000000     0          
T        Si     0.481800000000     0.687550000000     0.598450000000     0          
T        Si     0.276550000000     0.937450000000     0.731800000000     0          
T        Si     0.312550000000     0.901550000000     0.606800000000     0          
T        Si     0.348450000000     0.937550000000     0.981800000000     0          
T        Si     0.312450000000     0.973450000000     0.856800000000     0          
T        Si     0.276550000000     0.937550000000     0.643200000000     0          
T        Si     0.312450000000     0.901550000000     0.518200000000     0          
T        Si     0.348450000000     0.937450000000     0.893200000000     0          
T        Si     0.312550000000     0.973450000000     0.768200000000     0          
T        Si     0.231800000000     0.526550000000     0.687450000000     0          
T        Si     0.223450000000     0.856800000000     0.562450000000     0          
T        Si     0.393200000000     0.848450000000     0.937450000000     0          
T        Si     0.401550000000     0.518200000000     0.812450000000     0          
T        Si     0.231800000000     0.848450000000     0.687550000000     0          
T        Si     0.401550000000     0.856800000000     0.562550000000     0          
T        Si     0.393200000000     0.526550000000     0.937550000000     0          
T        Si     0.223450000000     0.518200000000     0.812550000000     0          
T        Si     0.187450000000     0.981800000000     0.776550000000     0          
T        Si     0.437450000000     0.643200000000     0.598450000000     0          
T        Si     0.106800000000     0.562450000000     0.973450000000     0          
T        Si     0.187550000000     0.731800000000     0.848450000000     0          
T        Si     0.268200000000     0.812550000000     0.973450000000     0          
T        Si     0.187550000000     0.893200000000     0.776550000000     0          
T        Si     0.106800000000     0.562550000000     0.651550000000     0          
T        Si     0.018200000000     0.812450000000     0.901550000000     0          
T        Si     0.223450000000     0.812550000000     0.518200000000     0          
T        Si     0.187450000000     0.848450000000     0.643200000000     0          
T        Si     0.151550000000     0.812450000000     0.768200000000     0          
T        Si     0.187550000000     0.776550000000     0.893200000000     0          
T        Si     0.223450000000     0.812450000000     0.606800000000     0          
T        Si     0.187550000000     0.848450000000     0.731800000000     0          
T        Si     0.151550000000     0.812550000000     0.856800000000     0          
T        Si     0.187450000000     0.776550000000     0.981800000000     0          
T        Si     0.268200000000     0.723450000000     0.562550000000     0          
T        Si     0.276550000000     0.893200000000     0.687550000000     0          
T        Si     0.106800000000     0.901550000000     0.812550000000     0          
T        Si     0.098450000000     0.731800000000     0.937550000000     0          
T        Si     0.268200000000     0.901550000000     0.562450000000     0          
T        Si     0.098450000000     0.893200000000     0.687450000000     0          
T        Si     0.106800000000     0.723450000000     0.812450000000     0          
T        Si     0.276550000000     0.731800000000     0.937450000000     0          
T        Si     0.312550000000     0.768200000000     0.973450000000     0          
T        Si     0.062550000000     0.606800000000     0.651550000000     0          
T        Si     0.393200000000     0.687550000000     0.776550000000     0          
T        Si     0.312450000000     0.518200000000     0.901550000000     0          
T        Si     0.231800000000     0.937450000000     0.776550000000     0          
T        Si     0.312450000000     0.856800000000     0.973450000000     0          
T        Si     0.393200000000     0.687450000000     0.598450000000     0          
T        Si     0.481800000000     0.937550000000     0.848450000000     0          
T        Si     0.276550000000     0.687450000000     0.981800000000     0          
T        Si     0.312550000000     0.651550000000     0.856800000000     0          
T        Si     0.348450000000     0.687550000000     0.731800000000     0          
T        Si     0.312450000000     0.723450000000     0.606800000000     0          
T        Si     0.276550000000     0.687550000000     0.893200000000     0          
T        Si     0.312450000000     0.651550000000     0.768200000000     0          
T        Si     0.348450000000     0.687450000000     0.643200000000     0          
T        Si     0.312550000000     0.723450000000     0.518200000000     0          
T        Si     0.231800000000     0.776550000000     0.937450000000     0          
T        Si     0.223450000000     0.606800000000     0.812450000000     0          
T        Si     0.393200000000     0.598450000000     0.687450000000     0          
T        Si     0.401550000000     0.768200000000     0.562450000000     0          
T        Si     0.231800000000     0.598450000000     0.937550000000     0          
T        Si     0.401550000000     0.606800000000     0.812550000000     0          
T        Si     0.393200000000     0.776550000000     0.687550000000     0          
T        Si     0.223450000000     0.768200000000     0.562550000000     0          
T        Si     0.187450000000     0.731800000000     0.526550000000     0          
T        Si     0.437450000000     0.893200000000     0.848450000000     0          
T        Si     0.106800000000     0.812450000000     0.723450000000     0          
T        Si     0.187550000000     0.981800000000     0.598450000000     0          
T        Si     0.268200000000     0.562550000000     0.723450000000     0          
T        Si     0.187550000000     0.643200000000     0.526550000000     0          
T        Si     0.106800000000     0.812550000000     0.901550000000     0          
T        Si     0.018200000000     0.562450000000     0.651550000000     0          
T        Si     0.973450000000     0.062550000000     0.018200000000     0          
T        Si     0.937450000000     0.098450000000     0.143200000000     0          
T        Si     0.901550000000     0.062450000000     0.268200000000     0          
T        Si     0.937550000000     0.026550000000     0.393200000000     0          
T        Si     0.973450000000     0.062450000000     0.106800000000     0          
T        Si     0.937550000000     0.098450000000     0.231800000000     0          
T        Si     0.901550000000     0.062550000000     0.356800000000     0          
T        Si     0.937450000000     0.026550000000     0.481800000000     0          
T        Si     0.518200000000     0.473450000000     0.062550000000     0          
T        Si     0.526550000000     0.143200000000     0.187550000000     0          
T        Si     0.856800000000     0.151550000000     0.312550000000     0          
T        Si     0.848450000000     0.481800000000     0.437550000000     0          
T        Si     0.518200000000     0.151550000000     0.062450000000     0          
T        Si     0.848450000000     0.143200000000     0.187450000000     0          
T        Si     0.856800000000     0.473450000000     0.312450000000     0          
T        Si     0.526550000000     0.481800000000     0.437450000000     0          
T        Si     0.562550000000     0.018200000000     0.473450000000     0          
T        Si     0.812550000000     0.356800000000     0.151550000000     0          
T        Si     0.643200000000     0.437550000000     0.276550000000     0          
T        Si     0.562450000000     0.268200000000     0.401550000000     0          
T        Si     0.981800000000     0.187450000000     0.276550000000     0          
T        Si     0.562450000000     0.106800000000     0.473450000000     0          
T        Si     0.643200000000     0.437450000000     0.098450000000     0          
T        Si     0.731800000000     0.187550000000     0.348450000000     0          
T        Si     0.526550000000     0.437450000000     0.481800000000     0          
T        Si     0.562550000000     0.401550000000     0.356800000000     0          
T        Si     0.598450000000     0.437550000000     0.231800000000     0          
T        Si     0.562450000000     0.473450000000     0.106800000000     0          
T        Si     0.526550000000     0.437550000000     0.393200000000     0          
T        Si     0.562450000000     0.401550000000     0.268200000000     0          
T        Si     0.598450000000     0.437450000000     0.143200000000     0          
T        Si     0.562550000000     0.473450000000     0.018200000000     0          
T        Si     0.981800000000     0.026550000000     0.437450000000     0          
T        Si     0.973450000000     0.356800000000     0.312450000000     0          
T        Si     0.643200000000     0.348450000000     0.187450000000     0          
T        Si     0.651550000000     0.018200000000     0.062450000000     0          
T        Si     0.981800000000     0.348450000000     0.437550000000     0          
T        Si     0.651550000000     0.356800000000     0.312550000000     0          
T        Si     0.643200000000     0.026550000000     0.187550000000     0          
T        Si     0.973450000000     0.018200000000     0.062550000000     0          
T        Si     0.937450000000     0.481800000000     0.026550000000     0          
T        Si     0.687450000000     0.143200000000     0.348450000000     0          
T        Si     0.856800000000     0.062450000000     0.223450000000     0          
T        Si     0.937550000000     0.231800000000     0.098450000000     0          
T        Si     0.518200000000     0.312550000000     0.223450000000     0          
T        Si     0.937550000000     0.393200000000     0.026550000000     0          
T        Si     0.856800000000     0.062550000000     0.401550000000     0          
T        Si     0.768200000000     0.312450000000     0.151550000000     0          
T        Si     0.973450000000     0.312550000000     0.268200000000     0          
T        Si     0.937450000000     0.348450000000     0.393200000000     0          
T        Si     0.901550000000     0.312450000000     0.018200000000     0          
T        Si     0.937550000000     0.276550000000     0.143200000000     0          
T        Si     0.973450000000     0.312450000000     0.356800000000     0          
T        Si     0.937550000000     0.348450000000     0.481800000000     0          
T        Si     0.901550000000     0.312550000000     0.106800000000     0          
T        Si     0.937450000000     0.276550000000     0.231800000000     0          
T        Si     0.518200000000     0.223450000000     0.312550000000     0          
T        Si     0.526550000000     0.393200000000     0.437550000000     0          
T        Si     0.856800000000     0.401550000000     0.062550000000     0          
T        Si     0.848450000000     0.231800000000     0.187550000000     0          
T        Si     0.518200000000     0.401550000000     0.312450000000     0          
T        Si     0.848450000000     0.393200000000     0.437450000000     0          
T        Si     0.856800000000     0.223450000000     0.062450000000     0          
T        Si     0.526550000000     0.231800000000     0.187450000000     0          
T        Si     0.562550000000     0.268200000000     0.223450000000     0          
T        Si     0.812550000000     0.106800000000     0.401550000000     0          
T        Si     0.643200000000     0.187550000000     0.026550000000     0          
T        Si     0.562450000000     0.018200000000     0.151550000000     0          
T        Si     0.981800000000     0.437450000000     0.026550000000     0          
T        Si     0.562450000000     0.356800000000     0.223450000000     0          
T        Si     0.643200000000     0.187450000000     0.348450000000     0          
T        Si     0.731800000000     0.437550000000     0.098450000000     0          
T        Si     0.526550000000     0.187450000000     0.231800000000     0          
T        Si     0.562550000000     0.151550000000     0.106800000000     0          
T        Si     0.598450000000     0.187550000000     0.481800000000     0          
T        Si     0.562450000000     0.223450000000     0.356800000000     0          
T        Si     0.526550000000     0.187550000000     0.143200000000     0          
T        Si     0.562450000000     0.151550000000     0.018200000000     0          
T        Si     0.598450000000     0.187450000000     0.393200000000     0          
T        Si     0.562550000000     0.223450000000     0.268200000000     0          
T        Si     0.981800000000     0.276550000000     0.187450000000     0          
T        Si     0.973450000000     0.106800000000     0.062450000000     0          
T        Si     0.643200000000     0.098450000000     0.437450000000     0          
T        Si     0.651550000000     0.268200000000     0.312450000000     0          
T        Si     0.981800000000     0.098450000000     0.187550000000     0          
T        Si     0.651550000000     0.106800000000     0.062550000000     0          
T        Si     0.643200000000     0.276550000000     0.437550000000     0          
T        Si     0.973450000000     0.268200000000     0.312550000000     0          
T        Si     0.937450000000     0.231800000000     0.276550000000     0          
T        Si     0.687450000000     0.393200000000     0.098450000000     0          
T        Si     0.856800000000     0.312450000000     0.473450000000     0          
T        Si     0.937550000000     0.481800000000     0.348450000000     0          
T        Si     0.518200000000     0.062550000000     0.473450000000     0          
T        Si     0.937550000000     0.143200000000     0.276550000000     0          
T        Si     0.856800000000     0.312550000000     0.151550000000     0          
T        Si     0.768200000000     0.062450000000     0.401550000000     0          
T        Si     0.723450000000     0.062550000000     0.268200000000     0          
T        Si     0.687450000000     0.098450000000     0.393200000000     0          
T        Si     0.651550000000     0.062450000000     0.018200000000     0          
T        Si     0.687550000000     0.026550000000     0.143200000000     0          
T        Si     0.723450000000     0.062450000000     0.356800000000     0          
T        Si     0.687550000000     0.098450000000     0.481800000000     0          
T        Si     0.651550000000     0.062550000000     0.106800000000     0          
T        Si     0.687450000000     0.026550000000     0.231800000000     0          
T        Si     0.768200000000     0.473450000000     0.312550000000     0          
T        Si     0.776550000000     0.143200000000     0.437550000000     0          
T        Si     0.606800000000     0.151550000000     0.062550000000     0          
T        Si     0.598450000000     0.481800000000     0.187550000000     0          
T        Si     0.768200000000     0.151550000000     0.312450000000     0          
T        Si     0.598450000000     0.143200000000     0.437450000000     0          
T        Si     0.606800000000     0.473450000000     0.062450000000     0          
T        Si     0.776550000000     0.481800000000     0.187450000000     0          
T        Si     0.812550000000     0.018200000000     0.223450000000     0          
T        Si     0.562550000000     0.356800000000     0.401550000000     0          
T        Si     0.893200000000     0.437550000000     0.026550000000     0          
T        Si     0.812450000000     0.268200000000     0.151550000000     0          
T        Si     0.731800000000     0.187450000000     0.026550000000     0          
T        Si     0.812450000000     0.106800000000     0.223450000000     0          
T        Si     0.893200000000     0.437450000000     0.348450000000     0          
T        Si     0.981800000000     0.187550000000     0.098450000000     0          
T        Si     0.776550000000     0.437450000000     0.231800000000     0          
T        Si     0.812550000000     0.401550000000     0.106800000000     0          
T        Si     0.848450000000     0.437550000000     0.481800000000     0          
T        Si     0.812450000000     0.473450000000     0.356800000000     0          
T        Si     0.776550000000     0.437550000000     0.143200000000     0          
T        Si     0.812450000000     0.401550000000     0.018200000000     0          
T        Si     0.848450000000     0.437450000000     0.393200000000     0          
T        Si     0.812550000000     0.473450000000     0.268200000000     0          
T        Si     0.731800000000     0.026550000000     0.187450000000     0          
T        Si     0.723450000000     0.356800000000     0.062450000000     0          
T        Si     0.893200000000     0.348450000000     0.437450000000     0          
T        Si     0.901550000000     0.018200000000     0.312450000000     0          
T        Si     0.731800000000     0.348450000000     0.187550000000     0          
T        Si     0.901550000000     0.356800000000     0.062550000000     0          
T        Si     0.893200000000     0.026550000000     0.437550000000     0          
T        Si     0.723450000000     0.018200000000     0.312550000000     0          
T        Si     0.687450000000     0.481800000000     0.276550000000     0          
T        Si     0.937450000000     0.143200000000     0.098450000000     0          
T        Si     0.606800000000     0.062450000000     0.473450000000     0          
T        Si     0.687550000000     0.231800000000     0.348450000000     0          
T        Si     0.768200000000     0.312550000000     0.473450000000     0          
T        Si     0.687550000000     0.393200000000     0.276550000000     0          
T        Si     0.606800000000     0.062550000000     0.151550000000     0          
T        Si     0.518200000000     0.312450000000     0.401550000000     0          
T        Si     0.723450000000     0.312550000000     0.018200000000     0          
T        Si     0.687450000000     0.348450000000     0.143200000000     0          
T        Si     0.651550000000     0.312450000000     0.268200000000     0          
T        Si     0.687550000000     0.276550000000     0.393200000000     0          
T        Si     0.723450000000     0.312450000000     0.106800000000     0          
T        Si     0.687550000000     0.348450000000     0.231800000000     0          
T        Si     0.651550000000     0.312550000000     0.356800000000     0          
T        Si     0.687450000000     0.276550000000     0.481800000000     0          
T        Si     0.768200000000     0.223450000000     0.062550000000     0          
T        Si     0.776550000000     0.393200000000     0.187550000000     0          
T        Si     0.606800000000     0.401550000000     0.312550000000     0          
T        Si     0.598450000000     0.231800000000     0.437550000000     0          
T        Si     0.768200000000     0.401550000000     0.062450000000     0          
T        Si     0.598450000000     0.393200000000     0.187450000000     0          
T        Si     0.606800000000     0.223450000000     0.312450000000     0          
T        Si     0.776550000000     0.231800000000     0.437450000000     0          
T        Si     0.812550000000     0.268200000000     0.473450000000     0          
T        Si     0.562550000000     0.106800000000     0.151550000000     0          
T        Si     0.893200000000     0.187550000000     0.276550000000     0          
T        Si     0.812450000000     0.018200000000     0.401550000000     0          
T        Si     0.731800000000     0.437450000000     0.276550000000     0          
T        Si     0.812450000000     0.356800000000     0.473450000000     0          
T        Si     0.893200000000     0.187450000000     0.098450000000     0          
T        Si     0.981800000000     0.437550000000     0.348450000000     0          
T        Si     0.776550000000     0.187450000000     0.481800000000     0          
T        Si     0.812550000000     0.151550000000     0.356800000000     0          
T        Si     0.848450000000     0.187550000000     0.231800000000     0          
T        Si     0.812450000000     0.223450000000     0.106800000000     0          
T        Si     0.776550000000     0.187550000000     0.393200000000     0          
T        Si     0.812450000000     0.151550000000     0.268200000000     0          
T        Si     0.848450000000     0.187450000000     0.143200000000     0          
T        Si     0.812550000000     0.223450000000     0.018200000000     0          
T        Si     0.731800000000     0.276550000000     0.437450000000     0          
T        Si     0.723450000000     0.106800000000     0.312450000000     0          
T        Si     0.893200000000     0.098450000000     0.187450000000     0          
T        Si     0.901550000000     0.268200000000     0.062450000000     0          
T        Si     0.731800000000     0.098450000000     0.437550000000     0          
T        Si     0.901550000000     0.106800000000     0.312550000000     0          
T        Si     0.893200000000     0.276550000000     0.187550000000     0          
T        Si     0.723450000000     0.268200000000     0.062550000000     0          
T        Si     0.687450000000     0.231800000000     0.026550000000     0          
T        Si     0.937450000000     0.393200000000     0.348450000000     0          
T        Si     0.606800000000     0.312450000000     0.223450000000     0          
T        Si     0.687550000000     0.481800000000     0.098450000000     0          
T        Si     0.768200000000     0.062550000000     0.223450000000     0          
T        Si     0.687550000000     0.143200000000     0.026550000000     0          
T        Si     0.606800000000     0.312550000000     0.401550000000     0          
T        Si     0.518200000000     0.062450000000     0.151550000000     0          
T        Si     0.973450000000     0.062550000000     0.518200000000     0          
T        Si     0.937450000000     0.098450000000     0.643200000000     0          
T        Si     0.901550000000     0.062450000000     0.768200000000     0          
T        Si     0.937550000000     0.026550000000     0.893200000000     0          
T        Si     0.973450000000     0.062450000000     0.606800000000     0          
T        Si     0.937550000000     0.098450000000     0.731800000000     0          
T        Si     0.901550000000     0.062550000000     0.856800000000     0          
T        Si     0.937450000000     0.026550000000     0.981800000000     0          
T        Si     0.518200000000     0.473450000000     0.562550000000     0          
T        Si     0.526550000000     0.143200000000     0.687550000000     0          
T        Si     0.856800000000     0.151550000000     0.812550000000     0          
T        Si     0.848450000000     0.481800000000     0.937550000000     0          
T        Si     0.518200000000     0.151550000000     0.562450000000     0          
T        Si     0.848450000000     0.143200000000     0.687450000000     0          
T        Si     0.856800000000     0.473450000000     0.812450000000     0          
T        Si     0.526550000000     0.481800000000     0.937450000000     0          
T        Si     0.562550000000     0.018200000000     0.973450000000     0          
T        Si     0.812550000000     0.356800000000     0.651550000000     0          
T        Si     0.643200000000     0.437550000000     0.776550000000     0          
T        Si     0.562450000000     0.268200000000     0.901550000000     0          
T        Si     0.981800000000     0.187450000000     0.776550000000     0          
T        Si     0.562450000000     0.106800000000     0.973450000000     0          
T        Si     0.643200000000     0.437450000000     0.598450000000     0          
T        Si     0.731800000000     0.187550000000     0.848450000000     0          
T        Si     0.526550000000     0.437450000000     0.981800000000     0          
T        Si     0.562550000000     0.401550000000     0.856800000000     0          
T        Si     0.598450000000     0.437550000000     0.731800000000     0          
T        Si     0.562450000000     0.473450000000     0.606800000000     0          
T        Si     0.526550000000     0.437550000000     0.893200000000     0          
T        Si     0.562450000000     0.401550000000     0.768200000000     0          
T        Si     0.598450000000     0.437450000000     0.643200000000     0          
T        Si     0.562550000000     0.473450000000     0.518200000000     0          
T        Si     0.981800000000     0.026550000000     0.937450000000     0          
T        Si     0.973450000000     0.356800000000     0.812450000000     0          
T        Si     0.643200000000     0.348450000000     0.687450000000     0          
T        Si     0.651550000000     0.018200000000     0.562450000000     0          
T        Si     0.981800000000     0.348450000000     0.937550000000     0          
T        Si     0.651550000000     0.356800000000     0.812550000000     0          
T        Si     0.643200000000     0.026550000000     0.687550000000     0          
T        Si     0.973450000000     0.018200000000     0.562550000000     0          
T        Si     0.937450000000     0.481800000000     0.526550000000     0          
T        Si     0.687450000000     0.143200000000     0.848450000000     0          
T        Si     0.856800000000     0.062450000000     0.723450000000     0          
T        Si     0.937550000000     0.231800000000     0.598450000000     0          
T        Si     0.518200000000     0.312550000000     0.723450000000     0          
T        Si     0.937550000000     0.393200000000     0.526550000000     0          
T        Si     0.856800000000     0.062550000000     0.901550000000     0          
T        Si     0.768200000000     0.312450000000     0.651550000000     0          
T        Si     0.973450000000     0.312550000000     0.768200000000     0          
T        Si     0.937450000000     0.348450000000     0.893200000000     0          
T        Si     0.901550000000     0.312450000000     0.518200000000     0          
T        Si     0.937550000000     0.276550000000     0.643200000000     0          
T        Si     0.973450000000     0.312450000000     0.856800000000     0          
T        Si     0.937550000000     0.348450000000     0.981800000000     0          
T        Si     0.901550000000     0.312550000000     0.606800000000     0          
T        Si     0.937450000000     0.276550000000     0.731800000000     0          
T        Si     0.518200000000     0.223450000000     0.812550000000     0          
T        Si     0.526550000000     0.393200000000     0.937550000000     0          
T        Si     0.856800000000     0.401550000000     0.562550000000     0          
T        Si     0.848450000000     0.231800000000     0.687550000000     0          
T        Si     0.518200000000     0.401550000000     0.812450000000     0          
T        Si     0.848450000000     0.393200000000     0.937450000000     0          
T        Si     0.856800000000     0.223450000000     0.562450000000     0          
T        Si     0.526550000000     0.231800000000     0.687450000000     0          
T        Si     0.562550000000     0.268200000000     0.723450000000     0          
T        Si     0.812550000000     0.106800000000     0.901550000000     0          
T        Si     0.643200000000     0.187550000000     0.526550000000     0          
T        Si     0.562450000000     0.018200000000     0.651550000000     0          
T        Si     0.981800000000     0.437450000000     0.526550000000     0          
T        Si     0.562450000000     0.356800000000     0.723450000000     0          
T        Si     0.643200000000     0.187450000000     0.848450000000     0          
T        Si     0.731800000000     0.437550000000     0.598450000000     0          
T        Si     0.526550000000     0.187450000000     0.731800000000     0          
T        Si     0.562550000000     0.151550000000     0.606800000000     0          
T        Si     0.598450000000     0.187550000000     0.981800000000     0          
T        Si     0.562450000000     0.223450000000     0.856800000000     0          
T        Si     0.526550000000     0.187550000000     0.643200000000     0          
T        Si     0.562450000000     0.151550000000     0.518200000000     0          
T        Si     0.598450000000     0.187450000000     0.893200000000     0          
T        Si     0.562550000000     0.223450000000     0.768200000000     0          
T        Si     0.981800000000     0.276550000000     0.687450000000     0          
T        Si     0.973450000000     0.106800000000     0.562450000000     0          
T        Si     0.643200000000     0.098450000000     0.937450000000     0          
T        Si     0.651550000000     0.268200000000     0.812450000000     0          
T        Si     0.981800000000     0.098450000000     0.687550000000     0          
T        Si     0.651550000000     0.106800000000     0.562550000000     0          
T        Si     0.643200000000     0.276550000000     0.937550000000     0          
T        Si     0.973450000000     0.268200000000     0.812550000000     0          
T        Si     0.937450000000     0.231800000000     0.776550000000     0          
T        Si     0.687450000000     0.393200000000     0.598450000000     0          
T        Si     0.856800000000     0.312450000000     0.973450000000     0          
T        Si     0.937550000000     0.481800000000     0.848450000000     0          
T        Si     0.518200000000     0.062550000000     0.973450000000     0          
T        Si     0.937550000000     0.143200000000     0.776550000000     0          
T        Si     0.856800000000     0.312550000000     0.651550000000     0          
T        Si     0.768200000000     0.062450000000     0.901550000000     0          
T        Si     0.723450000000     0.062550000000     0.768200000000     0          
T        Si     0.687450000000     0.098450000000     0.893200000000     0          
T        Si     0.651550000000     0.062450000000     0.518200000000     0          
T        Si     0.687550000000     0.026550000000     0.643200000000     0          
T        Si     0.723450000000     0.062450000000     0.856800000000     0          
T        Si     0.687550000000     0.098450000000     0.981800000000     0          
T        Si     0.651550000000     0.062550000000     0.606800000000     0          
T        Si     0.687450000000     0.026550000000     0.731800000000     0          
T        Si     0.768200000000     0.473450000000     0.812550000000     0          
T        Si     0.776550000000     0.143200000000     0.937550000000     0          
T        Si     0.606800000000     0.151550000000     0.562550000000     0          
T        Si     0.598450000000     0.481800000000     0.687550000000     0          
T        Si     0.768200000000     0.151550000000     0.812450000000     0          
T        Si     0.598450000000     0.143200000000     0.937450000000     0          
T        Si     0.606800000000     0.473450000000     0.562450000000     0          
T        Si     0.776550000000     0.481800000000     0.687450000000     0          
T        Si     0.812550000000     0.018200000000     0.723450000000     0          
T        Si     0.562550000000     0.356800000000     0.901550000000     0          
T        Si     0.893200000000     0.437550000000     0.526550000000     0          
T        Si     0.812450000000     0.268200000000     0.651550000000     0          
T        Si     0.731800000000     0.187450000000     0.526550000000     0          
T        Si     0.812450000000     0.106800000000     0.723450000000     0          
T        Si     0.893200000000     0.437450000000     0.848450000000     0          
T        Si     0.981800000000     0.187550000000     0.598450000000     0          
T        Si     0.776550000000     0.437450000000     0.731800000000     0          
T        Si     0.812550000000     0.401550000000     0.606800000000     0          
T        Si     0.848450000000     0.437550000000     0.981800000000     0          
T        Si     0.812450000000     0.473450000000     0.856800000000     0          
T        Si     0.776550000000     0.437550000000     0.643200000000     0          
T        Si     0.812450000000     0.401550000000     0.518200000000     0          
T        Si     0.848450000000     0.437450000000     0.893200000000     0          
T        Si     0.812550000000     0.473450000000     0.768200000000     0          
T        Si     0.731800000000     0.026550000000     0.687450000000     0          
T        Si     0.723450000000     0.356800000000     0.562450000000     0          
T        Si     0.893200000000     0.348450000000     0.937450000000     0          
T        Si     0.901550000000     0.018200000000     0.812450000000     0          
T        Si     0.731800000000     0.348450000000     0.687550000000     0          
T        Si     0.901550000000     0.356800000000     0.562550000000     0          
T        Si     0.893200000000     0.026550000000     0.937550000000     0          
T        Si     0.723450000000     0.018200000000     0.812550000000     0          
T        Si     0.687450000000     0.481800000000     0.776550000000     0          
T        Si     0.937450000000     0.143200000000     0.598450000000     0          
T        Si     0.606800000000     0.062450000000     0.973450000000     0          
T        Si     0.687550000000     0.231800000000     0.848450000000     0          
T        Si     0.768200000000     0.312550000000     0.973450000000     0          
T        Si     0.687550000000     0.393200000000     0.776550000000     0          
T        Si     0.606800000000     0.062550000000     0.651550000000     0          
T        Si     0.518200000000     0.312450000000     0.901550000000     0          
T        Si     0.723450000000     0.312550000000     0.518200000000     0          
T        Si     0.687450000000     0.348450000000     0.643200000000     0          
T        Si     0.651550000000     0.312450000000     0.768200000000     0          
T        Si     0.687550000000     0.276550000000     0.893200000000     0          
T        Si     0.723450000000     0.312450000000     0.606800000000     0          
T        Si     0.687550000000     0.348450000000     0.731800000000     0          
T        Si     0.651550000000     0.312550000000     0.856800000000     0          
T        Si     0.687450000000     0.276550000000     0.981800000000     0          
T        Si     0.768200000000     0.223450000000     0.562550000000     0          
T        Si     0.776550000000     0.393200000000     0.687550000000     0          
T        Si     0.606800000000     0.401550000000     0.812550000000     0          
T        Si     0.598450000000     0.231800000000     0.937550000000     0          
T        Si     0.768200000000     0.401550000000     0.562450000000     0          
T        Si     0.598450000000     0.393200000000     0.687450000000     0          
T        Si     0.606800000000     0.223450000000     0.812450000000     0          
T        Si     0.776550000000     0.231800000000     0.937450000000     0          
T        Si     0.812550000000     0.268200000000     0.973450000000     0          
T        Si     0.562550000000     0.106800000000     0.651550000000     0          
T        Si     0.893200000000     0.187550000000     0.776550000000     0          
T        Si     0.812450000000     0.018200000000     0.901550000000     0          
T        Si     0.731800000000     0.437450000000     0.776550000000     0          
T        Si     0.812450000000     0.356800000000     0.973450000000     0          
T        Si     0.893200000000     0.187450000000     0.598450000000     0          
T        Si     0.981800000000     0.437550000000     0.848450000000     0          
T        Si     0.776550000000     0.187450000000     0.981800000000     0          
T        Si     0.812550000000     0.151550000000     0.856800000000     0          
T        Si     0.848450000000     0.187550000000     0.731800000000     0          
T        Si     0.812450000000     0.223450000000     0.606800000000     0          
T        Si     0.776550000000     0.187550000000     0.893200000000     0          
T        Si     0.812450000000     0.151550000000     0.768200000000     0          
T        Si     0.848450000000     0.187450000000     0.643200000000     0          
T        Si     0.812550000000     0.223450000000     0.518200000000     0          
T        Si     0.731800000000     0.276550000000     0.937450000000     0          
T        Si     0.723450000000     0.106800000000     0.812450000000     0          
T        Si     0.893200000000     0.098450000000     0.687450000000     0          
T        Si     0.901550000000     0.268200000000     0.562450000000     0          
T        Si     0.731800000000     0.098450000000     0.937550000000     0          
T        Si     0.901550000000     0.106800000000     0.812550000000     0          
T        Si     0.893200000000     0.276550000000     0.687550000000     0          
T        Si     0.723450000000     0.268200000000     0.562550000000     0          
T        Si     0.687450000000     0.231800000000     0.526550000000     0          
T        Si     0.937450000000     0.393200000000     0.848450000000     0          
T        Si     0.606800000000     0.312450000000     0.723450000000     0          
T        Si     0.687550000000     0.481800000000     0.598450000000     0          
T        Si     0.768200000000     0.062550000000     0.723450000000     0          
T        Si     0.687550000000     0.143200000000     0.526550000000     0          
T        Si     0.606800000000     0.312550000000     0.901550000000     0          
T        Si     0.518200000000     0.062450000000     0.651550000000     0          
T        Si     0.973450000000     0.562550000000     0.018200000000     0          
T        Si     0.937450000000     0.598450000000     0.143200000000     0          
T        Si     0.901550000000     0.562450000000     0.268200000000     0          
T        Si     0.937550000000     0.526550000000     0.393200000000     0          
T        Si     0.973450000000     0.562450000000     0.106800000000     0          
T        Si     0.937550000000     0.598450000000     0.231800000000     0          
T        Si     0.901550000000     0.562550000000     0.356800000000     0          
T        Si     0.937450000000     0.526550000000     0.481800000000     0          
T        Si     0.518200000000     0.973450000000     0.062550000000     0          
T        Si     0.526550000000     0.643200000000     0.187550000000     0          
T        Si     0.856800000000     0.651550000000     0.312550000000     0          
T        Si     0.848450000000     0.981800000000     0.437550000000     0          
T        Si     0.518200000000     0.651550000000     0.062450000000     0          
T        Si     0.848450000000     0.643200000000     0.187450000000     0          
T        Si     0.856800000000     0.973450000000     0.312450000000     0          
T        Si     0.526550000000     0.981800000000     0.437450000000     0          
T        Si     0.562550000000     0.518200000000     0.473450000000     0          
T        Si     0.812550000000     0.856800000000     0.151550000000     0          
T        Si     0.643200000000     0.937550000000     0.276550000000     0          
T        Si     0.562450000000     0.768200000000     0.401550000000     0          
T        Si     0.981800000000     0.687450000000     0.276550000000     0          
T        Si     0.562450000000     0.606800000000     0.473450000000     0          
T        Si     0.643200000000     0.937450000000     0.098450000000     0          
T        Si     0.731800000000     0.687550000000     0.348450000000     0          
T        Si     0.526550000000     0.937450000000     0.481800000000     0          
T        Si     0.562550000000     0.901550000000     0.356800000000     0          
T        Si     0.598450000000     0.937550000000     0.231800000000     0          
T        Si     0.562450000000     0.973450000000     0.106800000000     0          
T        Si     0.526550000000     0.937550000000     0.393200000000     0          
T        Si     0.562450000000     0.901550000000     0.268200000000     0          
T        Si     0.598450000000     0.937450000000     0.143200000000     0          
T        Si     0.562550000000     0.973450000000     0.018200000000     0          
T        Si     0.981800000000     0.526550000000     0.437450000000     0          
T        Si     0.973450000000     0.856800000000     0.312450000000     0          
T        Si     0.643200000000     0.848450000000     0.187450000000     0          
T        Si     0.651550000000     0.518200000000     0.062450000000     0          
T        Si     0.981800000000     0.848450000000     0.437550000000     0          
T        Si     0.651550000000     0.856800000000     0.312550000000     0          
T        Si     0.643200000000     0.526550000000     0.187550000000     0          
T        Si     0.973450000000     0.518200000000     0.062550000000     0          
T        Si     0.937450000000     0.981800000000     0.026550000000     0          
T        Si     0.687450000000     0.643200000000     0.348450000000     0          
T        Si     0.856800000000     0.562450000000     0.223450000000     0          
T        Si     0.937550000000     0.731800000000     0.098450000000     0          
T        Si     0.518200000000     0.812550000000     0.223450000000     0          
T        Si     0.937550000000     0.893200000000     0.026550000000     0          
T        Si     0.856800000000     0.562550000000     0.401550000000     0          
T        Si     0.768200000000     0.812450000000     0.151550000000     0          
T        Si     0.973450000000     0.812550000000     0.268200000000     0          
T        Si     0.937450000000     0.848450000000     0.393200000000     0          
T        Si     0.901550000000     0.812450000000     0.018200000000     0          
T        Si     0.937550000000     0.776550000000     0.143200000000     0          
T        Si     0.973450000000     0.812450000000     0.356800000000     0          
T        Si     0.937550000000     0.848450000000     0.481800000000     0          
T        Si     0.901550000000     0.812550000000     0.106800000000     0          
T        Si     0.937450000000     0.776550000000     0.231800000000     0          
T        Si     0.518200000000     0.723450000000     0.312550000000     0          
T        Si     0.526550000000     0.893200000000     0.437550000000     0          
T        Si     0.856800000000     0.901550000000     0.062550000000     0          
T        Si     0.848450000000     0.731800000000     0.187550000000     0          
T        Si     0.518200000000     0.901550000000     0.312450000000     0          
T        Si     0.848450000000     0.893200000000     0.437450000000     0          
T        Si     0.856800000000     0.723450000000     0.062450000000     0          
T        Si     0.526550000000     0.731800000000     0.187450000000     0          
T        Si     0.562550000000     0.768200000000     0.223450000000     0          
T        Si     0.812550000000     0.606800000000     0.401550000000     0          
T        Si     0.643200000000     0.687550000000     0.026550000000     0          
T        Si     0.562450000000     0.518200000000     0.151550000000     0          
T        Si     0.981800000000     0.937450000000     0.026550000000     0          
T        Si     0.562450000000     0.856800000000     0.223450000000     0          
T        Si     0.643200000000     0.687450000000     0.348450000000     0          
T        Si     0.731800000000     0.937550000000     0.098450000000     0          
T        Si     0.526550000000     0.687450000000     0.231800000000     0          
T        Si     0.562550000000     0.651550000000     0.106800000000     0          
T        Si     0.598450000000     0.687550000000     0.481800000000     0          
T        Si     0.562450000000     0.723450000000     0.356800000000     0          
T        Si     0.526550000000     0.687550000000     0.143200000000     0          
T        Si     0.562450000000     0.651550000000     0.018200000000     0          
T        Si     0.598450000000     0.687450000000     0.393200000000     0          
T        Si     0.562550000000     0.723450000000     0.268200000000     0          
T        Si     0.981800000000     0.776550000000     0.187450000000     0          
T        Si     0.973450000000     0.606800000000     0.062450000000     0          
T        Si     0.643200000000     0.598450000000     0.437450000000     0          
T        Si     0.651550000000     0.768200000000     0.312450000000     0          
T        Si     0.981800000000     0.598450000000     0.187550000000     0          
T        Si     0.651550000000     0.606800000000     0.062550000000     0          
T        Si     0.643200000000     0.776550000000     0.437550000000     0          
T        Si     0.973450000000     0.768200000000     0.312550000000     0          
T        Si     0.937450000000     0.731800000000     0.276550000000     0          
T        Si     0.687450000000     0.893200000000     0.098450000000     0          
T        Si     0.856800000000     0.812450000000     0.473450000000     0          
T        Si     0.937550000000     0.981800000000     0.348450000000     0          
T        Si     0.518200000000     0.562550000000     0.473450000000     0          
T        Si     0.937550000000     0.643200000000     0.276550000000     0          
T        Si     0.856800000000     0.812550000000     0.151550000000     0          
T        Si     0.768200000000     0.562450000000     0.401550000000     0          
T        Si     0.723450000000     0.562550000000     0.268200000000     0          
T        Si     0.687450000000     0.598450000000     0.393200000000     0          
T        Si     0.651550000000     0.562450000000     0.018200000000     0          
T        Si     0.687550000000     0.526550000000     0.143200000000     0          
T        Si     0.723450000000     0.562450000000     0.356800000000     0          
T        Si     0.687550000000     0.598450000000     0.481800000000     0          
T        Si     0.651550000000     0.562550000000     0.106800000000     0          
T        Si     0.687450000000     0.526550000000     0.231800000000     0          
T        Si     0.768200000000     0.973450000000     0.312550000000     0          
T        Si     0.776550000000     0.643200000000     0.437550000000     0          
T        Si     0.606800000000     0.651550000000     0.062550000000     0          
T        Si     0.598450000000     0.981800000000     0.187550000000     0          
T        Si     0.768200000000     0.651550000000     0.312450000000     0          
T        Si     0.598450000000     0.643200000000     0.437450000000     0          
T        Si     0.606800000000     0.973450000000     0.062450000000     0          
T        Si     0.776550000000     0.981800000000     0.187450000000     0          
T        Si     0.812550000000     0.518200000000     0.223450000000     0          
T        Si     0.562550000000     0.856800000000     0.401550000000     0          
T        Si     0.893200000000     0.937550000000     0.026550000000     0          
T        Si     0.812450000000     0.768200000000     0.151550000000     0          
T        Si     0.731800000000     0.687450000000     0.026550000000     0          
T        Si     0.812450000000     0.606800000000     0.223450000000     0          
T        Si     0.893200000000     0.937450000000     0.348450000000     0          
T        Si     0.981800000000     0.687550000000     0.098450000000     0          
T        Si     0.776550000000     0.937450000000     0.231800000000     0          
T        Si     0.812550000000     0.901550000000     0.106800000000     0          
T        Si     0.848450000000     0.937550000000     0.481800000000     0          
T        Si     0.812450000000     0.973450000000     0.356800000000     0          
T        Si     0.776550000000     0.937550000000     0.143200000000     0          
T        Si     0.812450000000     0.901550000000     0.018200000000     0          
T        Si     0.848450000000     0.937450000000     0.393200000000     0          
T        Si     0.812550000000     0.973450000000     0.268200000000     0          
T        Si     0.731800000000     0.526550000000     0.187450000000     0          
T        Si     0.723450000000     0.856800000000     0.062450000000     0          
T        Si     0.893200000000     0.848450000000     0.437450000000     0          
T        Si     0.901550000000     0.518200000000     0.312450000000     0          
T        Si     0.731800000000     0.848450000000     0.187550000000     0          
T        Si     0.901550000000     0.856800000000     0.062550000000     0          
T        Si     0.893200000000     0.526550000000     0.437550000000     0          
T        Si     0.723450000000     0.518200000000     0.312550000000     0          
T        Si     0.687450000000     0.981800000000     0.276550000000     0          
T        Si     0.937450000000     0.643200000000     0.098450000000     0          
T        Si     0.606800000000     0.562450000000     0.473450000000     0          
T        Si     0.687550000000     0.731800000000     0.348450000000     0          
T        Si     0.768200000000     0.812550000000     0.473450000000     0          
T        Si     0.687550000000     0.893200000000     0.276550000000     0          
T        Si     0.606800000000     0.562550000000     0.151550000000     0          
T        Si     0.518200000000     0.812450000000     0.401550000000     0          
T        Si     0.723450000000     0.812550000000     0.018200000000     0          
T        Si     0.687450000000     0.848450000000     0.143200000000     0          
T        Si     0.651550000000     0.812450000000     0.268200000000     0          
T        Si     0.687550000000     0.776550000000     0.393200000000     0          
T        Si     0.723450000000     0.812450000000     0.106800000000     0          
T        Si     0.687550000000     0.848450000000     0.231800000000     0          
T        Si     0.651550000000     0.812550000000     0.356800000000     0          
T        Si     0.687450000000     0.776550000000     0.481800000000     0          
T        Si     0.768200000000     0.723450000000     0.062550000000     0          
T        Si     0.776550000000     0.893200000000     0.187550000000     0          
T        Si     0.606800000000     0.901550000000     0.312550000000     0          
T        Si     0.598450000000     0.731800000000     0.437550000000     0          
T        Si     0.768200000000     0.901550000000     0.062450000000     0          
T        Si     0.598450000000     0.893200000000     0.187450000000     0          
T        Si     0.606800000000     0.723450000000     0.312450000000     0          
T        Si     0.776550000000     0.731800000000     0.437450000000     0          
T        Si     0.812550000000     0.768200000000     0.473450000000     0          
T        Si     0.562550000000     0.606800000000     0.151550000000     0          
T        Si     0.893200000000     0.687550000000     0.276550000000     0          
T        Si     0.812450000000     0.518200000000     0.401550000000     0          
T        Si     0.731800000000     0.937450000000     0.276550000000     0          
T        Si     0.812450000000     0.856800000000     0.473450000000     0          
T        Si     0.893200000000     0.687450000000     0.098450000000     0          
T        Si     0.981800000000     0.937550000000     0.348450000000     0          
T        Si     0.776550000000     0.687450000000     0.481800000000     0          
T        Si     0.812550000000     0.651550000000     0.356800000000     0          
T        Si     0.848450000000     0.687550000000     0.231800000000     0          
T        Si     0.812450000000     0.723450000000     0.106800000000     0          
T        Si     0.776550000000     0.687550000000     0.393200000000     0          
T        Si     0.812450000000     0.651550000000     0.268200000000     0          
T        Si     0.848450000000     0.687450000000     0.143200000000     0          
T        Si     0.812550000000     0.723450000000     0.018200000000     0          
T        Si     0.731800000000     0.776550000000     0.437450000000     0          
T        Si     0.723450000000     0.606800000000     0.312450000000     0          
T        Si     0.893200000000     0.598450000000     0.187450000000     0          
T        Si     0.901550000000     0.768200000000     0.062450000000     0          
T        Si     0.731800000000     0.598450000000     0.437550000000     0          
T        Si     0.901550000000     0.606800000000     0.312550000000     0          
T        Si     0.893200000000     0.776550000000     0.187550000000     0          
T        Si     0.723450000000     0.768200000000     0.062550000000     0          
T        Si     0.687450000000     0.731800000000     0.026550000000     0          
T        Si     0.937450000000     0.893200000000     0.348450000000     0          
T        Si     0.606800000000     0.812450000000     0.223450000000     0          
T        Si     0.687550000000     0.981800000000     0.098450000000     0          
T        Si     0.768200000000     0.562550000000     0.223450000000     0          
T        Si     0.687550000000     0.643200000000     0.026550000000     0          
T        Si     0.606800000000     0.812550000000     0.401550000000     0          
T        Si     0.518200000000     0.562450000000     0.151550000000     0          
T        Si     0.973450000000     0.562550000000     0.518200000000     0          
T        Si     0.937450000000     0.598450000000     0.643200000000     0          
T        Si     0.901550000000     0.562450000000     0.768200000000     0          
T        Si     0.937550000000     0.526550000000     0.893200000000     0          
T        Si     0.973450000000     0.562450000000     0.606800000000     0          
T        Si     0.937550000000     0.598450000000     0.731800000000     0          
T        Si     0.901550000000     0.562550000000     0.856800000000     0          
T        Si     0.937450000000     0.526550000000     0.981800000000     0          
T        Si     0.518200000000     0.973450000000     0.562550000000     0          
T        Si     0.526550000000     0.643200000000     0.687550000000     0          
T        Si     0.856800000000     0.651550000000     0.812550000000     0          
T        Si     0.848450000000     0.981800000000     0.937550000000     0          
T        Si     0.518200000000     0.651550000000     0.562450000000     0          
T        Si     0.848450000000     0.643200000000     0.687450000000     0          
T        Si     0.856800000000     0.973450000000     0.812450000000     0          
T        Si     0.526550000000     0.981800000000     0.937450000000     0          
T        Si     0.562550000000     0.518200000000     0.973450000000     0          
T        Si     0.812550000000     0.856800000000     0.651550000000     0          
T        Si     0.643200000000     0.937550000000     0.776550000000     0          
T        Si     0.562450000000     0.768200000000     0.901550000000     0          
T        Si     0.981800000000     0.687450000000     0.776550000000     0          
T        Si     0.562450000000     0.606800000000     0.973450000000     0          
T        Si     0.643200000000     0.937450000000     0.598450000000     0          
T        Si     0.731800000000     0.687550000000     0.848450000000     0          
T        Si     0.526550000000     0.937450000000     0.981800000000     0          
T        Si     0.562550000000     0.901550000000     0.856800000000     0          
T        Si     0.598450000000     0.937550000000     0.731800000000     0          
T        Si     0.562450000000     0.973450000000     0.606800000000     0          
T        Si     0.526550000000     0.937550000000     0.893200000000     0          
T        Si     0.562450000000     0.901550000000     0.768200000000     0          
T        Si     0.598450000000     0.937450000000     0.643200000000     0          
T        Si     0.562550000000     0.973450000000     0.518200000000     0          
T        Si     0.981800000000     0.526550000000     0.937450000000     0          
T        Si     0.973450000000     0.856800000000     0.812450000000     0          
T        Si     0.643200000000     0.848450000000     0.687450000000     0          
T        Si     0.651550000000     0.518200000000     0.562450000000     0          
T        Si     0.981800000000     0.848450000000     0.937550000000     0          
T        Si     0.651550000000     0.856800000000     0.812550000000     0          
T        Si     0.643200000000     0.526550000000     0.687550000000     0          
T        Si     0.973450000000     0.518200000000     0.562550000000     0          
T        Si     0.937450000000     0.981800000000     0.526550000000     0          
T        Si     0.687450000000     0.643200000000     0.848450000000     0          
T        Si     0.856800000000     0.562450000000     0.723450000000     0          
T        Si     0.937550000000     0.731800000000     0.598450000000     0          
T        Si     0.518200000000     0.812550000000     0.723450000000     0          
T        Si     0.937550000000     0.893200000000     0.526550000000     0          
T        Si     0.856800000000     0.562550000000     0.901550000000     0          
T        Si     0.768200000000     0.812450000000     0.651550000000     0          
T        Si     0.973450000000     0.812550000000     0.768200000000     0          
T        Si     0.937450000000     0.848450000000     0.893200000000     0          
T        Si     0.901550000000     0.812450000000     0.518200000000     0          
T        Si     0.937550000000     0.776550000000     0.643200000000     0          
T        Si     0.973450000000     0.812450000000     0.856800000000     0          
T        Si     0.937550000000     0.848450000000     0.981800000000     0          
T        Si     0.901550000000     0.812550000000     0.606800000000     0          
T        Si     0.937450000000     0.776550000000     0.731800000000     0          
T        Si     0.518200000000     0.723450000000     0.812550000000     0          
T        Si     0.526550000000     0.893200000000     0.937550000000     0          
T        Si     0.856800000000     0.901550000000     0.562550000000     0          
T        Si     0.848450000000     0.731800000000     0.687550000000     0          
T        Si     0.518200000000     0.901550000000     0.812450000000     0          
T        Si     0.848450000000     0.893200000000     0.937450000000     0          
T        Si     0.856800000000     0.723450000000     0.562450000000     0          
T        Si     0.526550000000     0.731800000000     0.687450000000     0          
T        Si     0.562550000000     0.768200000000     0.723450000000     0          
T        Si     0.812550000000     0.606800000000     0.901550000000     0          
T        Si     0.643200000000     0.687550000000     0.526550000000     0          
T        Si     0.562450000000     0.518200000000     0.651550000000     0          
T        Si     0.981800000000     0.937450000000     0.526550000000     0          
T        Si     0.562450000000     0.856800000000     0.723450000000     0          
T        Si     0.643200000000     0.687450000000     0.848450000000     0          
T        Si     0.731800000000     0.937550000000     0.598450000000     0          
T        Si     0.526550000000     0.687450000000     0.731800000000     0          
T        Si     0.562550000000     0.651550000000     0.606800000000     0          
T        Si     0.598450000000     0.687550000000     0.981800000000     0          
T        Si     0.562450000000     0.723450000000     0.856800000000     0          
T        Si     0.526550000000     0.687550000000     0.643200000000     0          
T        Si     0.562450000000     0.651550000000     0.518200000000     0          
T        Si     0.598450000000     0.687450000000     0.893200000000     0          
T        Si     0.562550000000     0.723450000000     0.768200000000     0          
T        Si     0.981800000000     0.776550000000     0.687450000000     0          
T        Si     0.973450000000     0.606800000000     0.562450000000     0          
T        Si     0.643200000000     0.598450000000     0.937450000000     0          
T        Si     0.651550000000     0.768200000000     0.812450000000     0          
T        Si     0.981800000000     0.598450000000     0.687550000000     0          
T        Si     0.651550000000     0.606800000000     0.562550000000     0          
T        Si     0.643200000000     0.776550000000     0.937550000000     0          
T        Si     0.973450000000     0.768200000000     0.812550000000     0          
T        Si     0.937450000000     0.731800000000     0.776550000000     0          
T        Si     0.687450000000     0.893200000000     0.598450000000     0          
T        Si     0.856800000000     0.812450000000     0.973450000000     0          
T        Si     0.937550000000     0.981800000000     0.848450000000     0          
T        Si     0.518200000000     0.562550000000     0.973450000000     0          
T        Si     0.937550000000     0.643200000000     0.776550000000     0          
T        Si     0.856800000000     0.812550000000     0.651550000000     0          
T        Si     0.768200000000     0.562450000000     0.901550000000     0          
T        Si     0.723450000000     0.562550000000     0.768200000000     0          
T        Si     0.687450000000     0.598450000000     0.893200000000     0          
T        Si     0.651550000000     0.562450000000     0.518200000000     0          
T        Si     0.687550000000     0.526550000000     0.643200000000     0          
T        Si     0.723450000000     0.562450000000     0.856800000000     0          
T        Si     0.687550000000     0.598450000000     0.981800000000     0          
T        Si     0.651550000000     0.562550000000     0.606800000000     0          
T        Si     0.687450000000     0.526550000000     0.731800000000     0          
T        Si     0.768200000000     0.973450000000     0.812550000000     0          
T        Si     0.776550000000     0.643200000000     0.937550000000     0          
T        Si     0.606800000000     0.651550000000     0.562550000000     0          
T        Si     0.598450000000     0.981800000000     0.687550000000     0          
T        Si     0.768200000000     0.651550000000     0.812450000000     0          
T        Si     0.598450000000     0.643200000000     0.937450000000     0          
T        Si     0.606800000000     0.973450000000     0.562450000000     0          
T        Si     0.776550000000     0.981800000000     0.687450000000     0          
T        Si     0.812550000000     0.518200000000     0.723450000000     0          
T        Si     0.562550000000     0.856800000000     0.901550000000     0          
T        Si     0.893200000000     0.937550000000     0.526550000000     0          
T        Si     0.812450000000     0.768200000000     0.651550000000     0          
T        Si     0.731800000000     0.687450000000     0.526550000000     0          
T        Si     0.812450000000     0.606800000000     0.723450000000     0          
T        Si     0.893200000000     0.937450000000     0.848450000000     0          
T        Si     0.981800000000     0.687550000000     0.598450000000     0          
T        Si     0.776550000000     0.937450000000     0.731800000000     0          
T        Si     0.812550000000     0.901550000000     0.606800000000     0          
T        Si     0.848450000000     0.937550000000     0.981800000000     0          
T        Si     0.812450000000     0.973450000000     0.856800000000     0          
T        Si     0.776550000000     0.937550000000     0.643200000000     0          
T        Si     0.812450000000     0.901550000000     0.518200000000     0          
T        Si     0.848450000000     0.937450000000     0.893200000000     0          
T        Si     0.812550000000     0.973450000000     0.768200000000     0          
T        Si     0.731800000000     0.526550000000     0.687450000000     0          
T        Si     0.723450000000     0.856800000000     0.562450000000     0          
T        Si     0.893200000000     0.848450000000     0.937450000000     0          
T        Si     0.901550000000     0.518200000000     0.812450000000     0          
T        Si     0.731800000000     0.848450000000     0.687550000000     0          
T        Si     0.901550000000     0.856800000000     0.562550000000     0          
T        Si     0.893200000000     0.526550000000     0.937550000000     0          
T        Si     0.723450000000     0.518200000000     0.812550000000     0          
T        Si     0.687450000000     0.981800000000     0.776550000000     0          
T        Si     0.937450000000     0.643200000000     0.598450000000     0          
T        Si     0.606800000000     0.562450000000     0.973450000000     0          
T        Si     0.687550000000     0.731800000000     0.848450000000     0          
T        Si     0.768200000000     0.812550000000     0.973450000000     0          
T        Si     0.687550000000     0.893200000000     0.776550000000     0          
T        Si     0.606800000000     0.562550000000     0.651550000000     0          
T        Si     0.518200000000     0.812450000000     0.901550000000     0          
T        Si     0.723450000000     0.812550000000     0.518200000000     0          
T        Si     0.687450000000     0.848450000000     0.643200000000     0          
T        Si     0.651550000000     0.812450000000     0.768200000000     0          
T        Si     0.687550000000     0.776550000000     0.893200000000     0          
T        Si     0.723450000000     0.812450000000     0.606800000000     0          
T        Si     0.687550000000     0.848450000000     0.731800000000     0          
T        Si     0.651550000000     0.812550000000     0.856800000000     0          
T        Si     0.687450000000     0.776550000000     0.981800000000     0          
T        Si     0.768200000000     0.723450000000     0.562550000000     0          
T        Si     0.776550000000     0.893200000000     0.687550000000     0          
T        Si     0.606800000000     0.901550000000     0.812550000000     0          
T        Si     0.598450000000     0.731800000000     0.937550000000     0          
T        Si     0.768200000000     0.901550000000     0.562450000000     0          
T        Si     0.598450000000     0.893200000000     0.687450000000     0          
T        Si     0.606800000000     0.723450000000     0.812450000000     0          
T        Si     0.776550000000     0.731800000000     0.937450000000     0          
T        Si     0.812550000000     0.768200000000     0.973450000000     0          
T        Si     0.562550000000     0.606800000000     0.651550000000     0          
T        Si     0.893200000000     0.687550000000     0.776550000000     0          
T        Si     0.812450000000     0.518200000000     0.901550000000     0          
T        Si     0.731800000000     0.937450000000     0.776550000000     0          
T        Si     0.812450000000     0.856800000000     0.973450000000     0          
T        Si     0.893200000000     0.687450000000     0.598450000000     0          
T        Si     0.981800000000     0.937550000000     0.848450000000     0          
T        Si     0.776550000000     0.687450000000     0.981800000000     0          
T        Si     0.812550000000     0.651550000000     0.856800000000     0          
T        Si     0.848450000000     0.687550000000     0.731800000000     0          
T        Si     0.812450000000     0.723450000000     0.606800000000     0          
T        Si     0.776550000000     0.687550000000     0.893200000000     0          
T        Si     0.812450000000     0.651550000000     0.768200000000     0          
T        Si     0.848450000000     0.687450000000     0.643200000000     0          
T        Si     0.812550000000     0.723450000000     0.518200000000     0          
T        Si     0.731800000000     0.776550000000     0.937450000000     0          
T        Si     0.723450000000     0.606800000000     0.812450000000     0          
T        Si     0.893200000000     0.598450000000     0.687450000000     0          
T        Si     0.901550000000     0.768200000000     0.562450000000     0          
T        Si     0.731800000000     0.598450000000     0.937550000000     0          
T        Si     0.901550000000     0.606800000000     0.812550000000     0          
T        Si     0.893200000000     0.776550000000     0.687550000000     0          
T        Si     0.723450000000     0.768200000000     0.562550000000     0          
T        Si     0.687450000000     0.731800000000     0.526550000000     0          
T        Si     0.937450000000     0.893200000000     0.848450000000     0          
T        Si     0.606800000000     0.812450000000     0.723450000000     0          
T        Si     0.687550000000     0.981800000000     0.598450000000     0          
T        Si     0.768200000000     0.562550000000     0.723450000000     0          
T        Si     0.687550000000     0.643200000000     0.526550000000     0          
T        Si     0.606800000000     0.812550000000     0.901550000000     0          
T        Si     0.518200000000     0.562450000000     0.651550000000     0          
O        O      0.447900000000     0.052100000000     0.000000000000     0          
O        O      0.483450000000     0.038100000000     0.038100000000     0          
O        O      0.498300000000     0.071450000000     0.498300000000     0          
O        O      0.464150000000     0.088500000000     0.036500000000     0          
O        O      0.447900000000     0.072900000000     0.125000000000     0          
O        O      0.461900000000     0.108450000000     0.163100000000     0          
O        O      0.428550000000     0.123300000000     0.123300000000     0          
O        O      0.411500000000     0.089150000000     0.161500000000     0          
O        O      0.427100000000     0.072900000000     0.250000000000     0          
O        O      0.391550000000     0.086900000000     0.288100000000     0          
O        O      0.376700000000     0.053550000000     0.248300000000     0          
O        O      0.410850000000     0.036500000000     0.286500000000     0          
O        O      0.427100000000     0.052100000000     0.375000000000     0          
O        O      0.413100000000     0.016550000000     0.413100000000     0          
O        O      0.446450000000     0.001700000000     0.373300000000     0          
O        O      0.463500000000     0.035850000000     0.411500000000     0          
O        O      0.483450000000     0.086900000000     0.086900000000     0          
O        O      0.498300000000     0.053550000000     0.126700000000     0          
O        O      0.464150000000     0.036500000000     0.088500000000     0          
O        O      0.413100000000     0.108450000000     0.211900000000     0          
O        O      0.446450000000     0.123300000000     0.251700000000     0          
O        O      0.463500000000     0.089150000000     0.213500000000     0          
O        O      0.391550000000     0.038100000000     0.336900000000     0          
O        O      0.376700000000     0.071450000000     0.376700000000     0          
O        O      0.410850000000     0.088500000000     0.338500000000     0          
O        O      0.461900000000     0.016550000000     0.461900000000     0          
O        O      0.428550000000     0.001700000000     0.001700000000     0          
O        O      0.411500000000     0.035850000000     0.463500000000     0          
O        O      0.000000000000     0.447900000000     0.052100000000     0          
O        O      0.038100000000     0.483450000000     0.038100000000     0          
O        O      0.498300000000     0.498300000000     0.071450000000     0          
O        O      0.036500000000     0.464150000000     0.088500000000     0          
O        O      0.052100000000     0.125000000000     0.177100000000     0          
O        O      0.016550000000     0.163100000000     0.163100000000     0          
O        O      0.001700000000     0.123300000000     0.196450000000     0          
O        O      0.035850000000     0.161500000000     0.213500000000     0          
O        O      0.375000000000     0.177100000000     0.302100000000     0          
O        O      0.336900000000     0.141550000000     0.288100000000     0          
O        O      0.376700000000     0.126700000000     0.321450000000     0          
O        O      0.338500000000     0.160850000000     0.338500000000     0          
O        O      0.322900000000     0.000000000000     0.427100000000     0          
O        O      0.358450000000     0.461900000000     0.413100000000     0          
O        O      0.373300000000     0.001700000000     0.446450000000     0          
O        O      0.339150000000     0.463500000000     0.463500000000     0          
O        O      0.000000000000     0.177100000000     0.072900000000     0          
O        O      0.038100000000     0.141550000000     0.086900000000     0          
O        O      0.498300000000     0.126700000000     0.053550000000     0          
O        O      0.036500000000     0.160850000000     0.036500000000     0          
O        O      0.322900000000     0.125000000000     0.197900000000     0          
O        O      0.358450000000     0.163100000000     0.211900000000     0          
O        O      0.373300000000     0.123300000000     0.178550000000     0          
O        O      0.339150000000     0.161500000000     0.161500000000     0          
O        O      0.375000000000     0.447900000000     0.322900000000     0          
O        O      0.336900000000     0.483450000000     0.336900000000     0          
O        O      0.376700000000     0.498300000000     0.303550000000     0          
O        O      0.338500000000     0.464150000000     0.286500000000     0          
O        O      0.052100000000     0.000000000000     0.447900000000     0          
O        O      0.016550000000     0.461900000000     0.461900000000     0          
O        O      0.001700000000     0.001700000000     0.428550000000     0          
O        O      0.035850000000     0.463500000000     0.411500000000     0          
O        O      0.038100000000     0.038100000000     0.483450000000     0          
O        O      0.071450000000     0.498300000000     0.498300000000     0          
O        O      0.088500000000     0.036500000000     0.464150000000     0          
O        O      0.302100000000     0.375000000000     0.177100000000     0          
O        O      0.288100000000     0.336900000000     0.141550000000     0          
O        O      0.321450000000     0.376700000000     0.126700000000     0          
O        O      0.338500000000     0.338500000000     0.160850000000     0          
O        O      0.125000000000     0.427100000000     0.302100000000     0          
O        O      0.163100000000     0.413100000000     0.266550000000     0          
O        O      0.123300000000     0.446450000000     0.251700000000     0          
O        O      0.161500000000     0.463500000000     0.285850000000     0          
O        O      0.072900000000     0.250000000000     0.427100000000     0          
O        O      0.086900000000     0.288100000000     0.391550000000     0          
O        O      0.053550000000     0.248300000000     0.376700000000     0          
O        O      0.036500000000     0.286500000000     0.410850000000     0          
O        O      0.000000000000     0.197900000000     0.302100000000     0          
O        O      0.461900000000     0.211900000000     0.266550000000     0          
O        O      0.001700000000     0.178550000000     0.251700000000     0          
O        O      0.463500000000     0.161500000000     0.285850000000     0          
O        O      0.072900000000     0.125000000000     0.447900000000     0          
O        O      0.086900000000     0.086900000000     0.483450000000     0          
O        O      0.053550000000     0.126700000000     0.498300000000     0          
O        O      0.036500000000     0.088500000000     0.464150000000     0          
O        O      0.125000000000     0.447900000000     0.072900000000     0          
O        O      0.163100000000     0.461900000000     0.108450000000     0          
O        O      0.123300000000     0.428550000000     0.123300000000     0          
O        O      0.161500000000     0.411500000000     0.089150000000     0          
O        O      0.250000000000     0.177100000000     0.322900000000     0          
O        O      0.211900000000     0.163100000000     0.358450000000     0          
O        O      0.251700000000     0.196450000000     0.373300000000     0          
O        O      0.213500000000     0.213500000000     0.339150000000     0          
O        O      0.052100000000     0.447900000000     0.000000000000     0          
O        O      0.001700000000     0.428550000000     0.001700000000     0          
O        O      0.035850000000     0.411500000000     0.463500000000     0          
O        O      0.052100000000     0.427100000000     0.375000000000     0          
O        O      0.038100000000     0.391550000000     0.336900000000     0          
O        O      0.071450000000     0.376700000000     0.376700000000     0          
O        O      0.088500000000     0.410850000000     0.338500000000     0          
O        O      0.072900000000     0.427100000000     0.250000000000     0          
O        O      0.108450000000     0.413100000000     0.211900000000     0          
O        O      0.089150000000     0.463500000000     0.213500000000     0          
O        O      0.072900000000     0.447900000000     0.125000000000     0          
O        O      0.086900000000     0.483450000000     0.086900000000     0          
O        O      0.053550000000     0.498300000000     0.126700000000     0          
O        O      0.016550000000     0.413100000000     0.413100000000     0          
O        O      0.001700000000     0.446450000000     0.373300000000     0          
O        O      0.086900000000     0.391550000000     0.288100000000     0          
O        O      0.053550000000     0.376700000000     0.248300000000     0          
O        O      0.036500000000     0.410850000000     0.286500000000     0          
O        O      0.108450000000     0.461900000000     0.163100000000     0          
O        O      0.089150000000     0.411500000000     0.161500000000     0          
O        O      0.088500000000     0.464150000000     0.036500000000     0          
O        O      0.000000000000     0.052100000000     0.447900000000     0          
O        O      0.447900000000     0.375000000000     0.322900000000     0          
O        O      0.483450000000     0.336900000000     0.336900000000     0          
O        O      0.498300000000     0.376700000000     0.303550000000     0          
O        O      0.464150000000     0.338500000000     0.286500000000     0          
O        O      0.125000000000     0.322900000000     0.197900000000     0          
O        O      0.163100000000     0.358450000000     0.211900000000     0          
O        O      0.123300000000     0.373300000000     0.178550000000     0          
O        O      0.161500000000     0.339150000000     0.161500000000     0          
O        O      0.177100000000     0.000000000000     0.072900000000     0          
O        O      0.141550000000     0.038100000000     0.086900000000     0          
O        O      0.126700000000     0.498300000000     0.053550000000     0          
O        O      0.160850000000     0.036500000000     0.036500000000     0          
O        O      0.000000000000     0.322900000000     0.427100000000     0          
O        O      0.461900000000     0.358450000000     0.413100000000     0          
O        O      0.001700000000     0.373300000000     0.446450000000     0          
O        O      0.463500000000     0.339150000000     0.463500000000     0          
O        O      0.177100000000     0.375000000000     0.302100000000     0          
O        O      0.141550000000     0.336900000000     0.288100000000     0          
O        O      0.126700000000     0.376700000000     0.321450000000     0          
O        O      0.160850000000     0.338500000000     0.338500000000     0          
O        O      0.125000000000     0.052100000000     0.177100000000     0          
O        O      0.163100000000     0.016550000000     0.163100000000     0          
O        O      0.123300000000     0.001700000000     0.196450000000     0          
O        O      0.161500000000     0.035850000000     0.213500000000     0          
O        O      0.447900000000     0.000000000000     0.052100000000     0          
O        O      0.461900000000     0.461900000000     0.016550000000     0          
O        O      0.411500000000     0.463500000000     0.035850000000     0          
O        O      0.197900000000     0.125000000000     0.322900000000     0          
O        O      0.178550000000     0.123300000000     0.373300000000     0          
O        O      0.161500000000     0.161500000000     0.339150000000     0          
O        O      0.375000000000     0.072900000000     0.197900000000     0          
O        O      0.336900000000     0.086900000000     0.233450000000     0          
O        O      0.338500000000     0.036500000000     0.214150000000     0          
O        O      0.427100000000     0.250000000000     0.072900000000     0          
O        O      0.413100000000     0.211900000000     0.108450000000     0          
O        O      0.446450000000     0.251700000000     0.123300000000     0          
O        O      0.463500000000     0.213500000000     0.089150000000     0          
O        O      0.000000000000     0.302100000000     0.197900000000     0          
O        O      0.038100000000     0.288100000000     0.233450000000     0          
O        O      0.498300000000     0.321450000000     0.248300000000     0          
O        O      0.036500000000     0.338500000000     0.214150000000     0          
O        O      0.427100000000     0.375000000000     0.052100000000     0          
O        O      0.413100000000     0.413100000000     0.016550000000     0          
O        O      0.446450000000     0.373300000000     0.001700000000     0          
O        O      0.463500000000     0.411500000000     0.035850000000     0          
O        O      0.375000000000     0.052100000000     0.427100000000     0          
O        O      0.336900000000     0.038100000000     0.391550000000     0          
O        O      0.338500000000     0.088500000000     0.410850000000     0          
O        O      0.250000000000     0.322900000000     0.177100000000     0          
O        O      0.248300000000     0.303550000000     0.126700000000     0          
O        O      0.286500000000     0.286500000000     0.160850000000     0          
O        O      0.447900000000     0.302100000000     0.250000000000     0          
O        O      0.483450000000     0.288100000000     0.288100000000     0          
O        O      0.447900000000     0.322900000000     0.375000000000     0          
O        O      0.428550000000     0.373300000000     0.373300000000     0          
O        O      0.411500000000     0.339150000000     0.411500000000     0          
O        O      0.427100000000     0.322900000000     0.000000000000     0          
O        O      0.391550000000     0.336900000000     0.038100000000     0          
O        O      0.376700000000     0.303550000000     0.498300000000     0          
O        O      0.410850000000     0.286500000000     0.036500000000     0          
O        O      0.427100000000     0.302100000000     0.125000000000     0          
O        O      0.413100000000     0.266550000000     0.163100000000     0          
O        O      0.463500000000     0.285850000000     0.161500000000     0          
O        O      0.498300000000     0.303550000000     0.376700000000     0          
O        O      0.464150000000     0.286500000000     0.338500000000     0          
O        O      0.413100000000     0.358450000000     0.461900000000     0          
O        O      0.391550000000     0.288100000000     0.086900000000     0          
O        O      0.376700000000     0.321450000000     0.126700000000     0          
O        O      0.410850000000     0.338500000000     0.088500000000     0          
O        O      0.461900000000     0.266550000000     0.211900000000     0          
O        O      0.428550000000     0.251700000000     0.251700000000     0          
O        O      0.411500000000     0.285850000000     0.213500000000     0          
O        O      0.038100000000     0.233450000000     0.288100000000     0          
O        O      0.498300000000     0.248300000000     0.321450000000     0          
O        O      0.036500000000     0.214150000000     0.338500000000     0          
O        O      0.052100000000     0.375000000000     0.427100000000     0          
O        O      0.375000000000     0.427100000000     0.052100000000     0          
O        O      0.336900000000     0.391550000000     0.038100000000     0          
O        O      0.376700000000     0.376700000000     0.071450000000     0          
O        O      0.338500000000     0.410850000000     0.088500000000     0          
O        O      0.322900000000     0.250000000000     0.177100000000     0          
O        O      0.358450000000     0.211900000000     0.163100000000     0          
O        O      0.373300000000     0.251700000000     0.196450000000     0          
O        O      0.339150000000     0.213500000000     0.213500000000     0          
O        O      0.000000000000     0.427100000000     0.322900000000     0          
O        O      0.322900000000     0.375000000000     0.447900000000     0          
O        O      0.358450000000     0.413100000000     0.461900000000     0          
O        O      0.373300000000     0.373300000000     0.428550000000     0          
O        O      0.339150000000     0.411500000000     0.411500000000     0          
O        O      0.375000000000     0.197900000000     0.072900000000     0          
O        O      0.336900000000     0.233450000000     0.086900000000     0          
O        O      0.376700000000     0.248300000000     0.053550000000     0          
O        O      0.338500000000     0.214150000000     0.036500000000     0          
O        O      0.052100000000     0.250000000000     0.197900000000     0          
O        O      0.016550000000     0.211900000000     0.211900000000     0          
O        O      0.001700000000     0.251700000000     0.178550000000     0          
O        O      0.035850000000     0.213500000000     0.161500000000     0          
O        O      0.071450000000     0.248300000000     0.248300000000     0          
O        O      0.088500000000     0.286500000000     0.214150000000     0          
O        O      0.302100000000     0.125000000000     0.427100000000     0          
O        O      0.288100000000     0.086900000000     0.391550000000     0          
O        O      0.321450000000     0.126700000000     0.376700000000     0          
O        O      0.125000000000     0.177100000000     0.052100000000     0          
O        O      0.163100000000     0.163100000000     0.016550000000     0          
O        O      0.123300000000     0.196450000000     0.001700000000     0          
O        O      0.161500000000     0.213500000000     0.035850000000     0          
O        O      0.072900000000     0.000000000000     0.177100000000     0          
O        O      0.086900000000     0.038100000000     0.141550000000     0          
O        O      0.036500000000     0.036500000000     0.160850000000     0          
O        O      0.072900000000     0.375000000000     0.197900000000     0          
O        O      0.086900000000     0.336900000000     0.233450000000     0          
O        O      0.125000000000     0.197900000000     0.322900000000     0          
O        O      0.163100000000     0.211900000000     0.358450000000     0          
O        O      0.123300000000     0.178550000000     0.373300000000     0          
O        O      0.250000000000     0.427100000000     0.072900000000     0          
O        O      0.211900000000     0.413100000000     0.108450000000     0          
O        O      0.251700000000     0.446450000000     0.123300000000     0          
O        O      0.213500000000     0.463500000000     0.089150000000     0          
O        O      0.052100000000     0.197900000000     0.250000000000     0          
O        O      0.052100000000     0.177100000000     0.125000000000     0          
O        O      0.071450000000     0.126700000000     0.126700000000     0          
O        O      0.088500000000     0.160850000000     0.088500000000     0          
O        O      0.072900000000     0.177100000000     0.000000000000     0          
O        O      0.108450000000     0.163100000000     0.461900000000     0          
O        O      0.089150000000     0.213500000000     0.463500000000     0          
O        O      0.072900000000     0.197900000000     0.375000000000     0          
O        O      0.086900000000     0.233450000000     0.336900000000     0          
O        O      0.001700000000     0.196450000000     0.123300000000     0          
O        O      0.086900000000     0.141550000000     0.038100000000     0          
O        O      0.108450000000     0.211900000000     0.413100000000     0          
O        O      0.089150000000     0.161500000000     0.411500000000     0          
O        O      0.088500000000     0.214150000000     0.286500000000     0          
O        O      0.447900000000     0.125000000000     0.072900000000     0          
O        O      0.125000000000     0.072900000000     0.447900000000     0          
O        O      0.163100000000     0.108450000000     0.461900000000     0          
O        O      0.123300000000     0.123300000000     0.428550000000     0          
O        O      0.161500000000     0.089150000000     0.411500000000     0          
O        O      0.177100000000     0.250000000000     0.322900000000     0          
O        O      0.141550000000     0.288100000000     0.336900000000     0          
O        O      0.126700000000     0.248300000000     0.303550000000     0          
O        O      0.160850000000     0.286500000000     0.286500000000     0          
O        O      0.000000000000     0.072900000000     0.177100000000     0          
O        O      0.177100000000     0.125000000000     0.052100000000     0          
O        O      0.141550000000     0.086900000000     0.038100000000     0          
O        O      0.126700000000     0.126700000000     0.071450000000     0          
O        O      0.160850000000     0.088500000000     0.088500000000     0          
O        O      0.125000000000     0.302100000000     0.427100000000     0          
O        O      0.163100000000     0.266550000000     0.413100000000     0          
O        O      0.123300000000     0.251700000000     0.446450000000     0          
O        O      0.161500000000     0.285850000000     0.463500000000     0          
O        O      0.447900000000     0.250000000000     0.302100000000     0          
O        O      0.411500000000     0.213500000000     0.285850000000     0          
O        O      0.197900000000     0.375000000000     0.072900000000     0          
O        O      0.178550000000     0.373300000000     0.123300000000     0          
O        O      0.375000000000     0.322900000000     0.447900000000     0          
O        O      0.336900000000     0.336900000000     0.483450000000     0          
O        O      0.338500000000     0.286500000000     0.464150000000     0          
O        O      0.427100000000     0.000000000000     0.322900000000     0          
O        O      0.413100000000     0.461900000000     0.358450000000     0          
O        O      0.463500000000     0.463500000000     0.339150000000     0          
O        O      0.427100000000     0.125000000000     0.302100000000     0          
O        O      0.413100000000     0.163100000000     0.266550000000     0          
O        O      0.375000000000     0.302100000000     0.177100000000     0          
O        O      0.336900000000     0.288100000000     0.141550000000     0          
O        O      0.250000000000     0.072900000000     0.427100000000     0          
O        O      0.248300000000     0.053550000000     0.376700000000     0          
O        O      0.286500000000     0.036500000000     0.410850000000     0          
O        O      0.197900000000     0.052100000000     0.250000000000     0          
O        O      0.233450000000     0.038100000000     0.288100000000     0          
O        O      0.248300000000     0.071450000000     0.248300000000     0          
O        O      0.214150000000     0.088500000000     0.286500000000     0          
O        O      0.197900000000     0.072900000000     0.375000000000     0          
O        O      0.211900000000     0.108450000000     0.413100000000     0          
O        O      0.177100000000     0.072900000000     0.000000000000     0          
O        O      0.126700000000     0.053550000000     0.498300000000     0          
O        O      0.177100000000     0.052100000000     0.125000000000     0          
O        O      0.196450000000     0.001700000000     0.123300000000     0          
O        O      0.213500000000     0.035850000000     0.161500000000     0          
O        O      0.233450000000     0.086900000000     0.336900000000     0          
O        O      0.214150000000     0.036500000000     0.338500000000     0          
O        O      0.196450000000     0.123300000000     0.001700000000     0          
O        O      0.213500000000     0.089150000000     0.463500000000     0          
O        O      0.126700000000     0.071450000000     0.126700000000     0          
O        O      0.211900000000     0.016550000000     0.211900000000     0          
O        O      0.178550000000     0.001700000000     0.251700000000     0          
O        O      0.250000000000     0.447900000000     0.302100000000     0          
O        O      0.288100000000     0.483450000000     0.288100000000     0          
O        O      0.248300000000     0.498300000000     0.321450000000     0          
O        O      0.286500000000     0.464150000000     0.338500000000     0          
O        O      0.266550000000     0.163100000000     0.413100000000     0          
O        O      0.251700000000     0.123300000000     0.446450000000     0          
O        O      0.285850000000     0.161500000000     0.463500000000     0          
O        O      0.288100000000     0.141550000000     0.336900000000     0          
O        O      0.248300000000     0.126700000000     0.303550000000     0          
O        O      0.286500000000     0.160850000000     0.286500000000     0          
O        O      0.302100000000     0.000000000000     0.197900000000     0          
O        O      0.266550000000     0.461900000000     0.211900000000     0          
O        O      0.251700000000     0.001700000000     0.178550000000     0          
O        O      0.285850000000     0.463500000000     0.161500000000     0          
O        O      0.288100000000     0.038100000000     0.233450000000     0          
O        O      0.321450000000     0.498300000000     0.248300000000     0          
O        O      0.038100000000     0.336900000000     0.391550000000     0          
O        O      0.088500000000     0.338500000000     0.410850000000     0          
O        O      0.373300000000     0.446450000000     0.001700000000     0          
O        O      0.303550000000     0.248300000000     0.126700000000     0          
O        O      0.250000000000     0.197900000000     0.052100000000     0          
O        O      0.211900000000     0.211900000000     0.016550000000     0          
O        O      0.251700000000     0.178550000000     0.001700000000     0          
O        O      0.213500000000     0.161500000000     0.035850000000     0          
O        O      0.303550000000     0.126700000000     0.248300000000     0          
O        O      0.286500000000     0.088500000000     0.214150000000     0          
O        O      0.373300000000     0.428550000000     0.373300000000     0          
O        O      0.411500000000     0.411500000000     0.339150000000     0          
O        O      0.461900000000     0.163100000000     0.108450000000     0          
O        O      0.302100000000     0.447900000000     0.250000000000     0          
O        O      0.251700000000     0.428550000000     0.251700000000     0          
O        O      0.285850000000     0.411500000000     0.213500000000     0          
O        O      0.302100000000     0.427100000000     0.125000000000     0          
O        O      0.288100000000     0.391550000000     0.086900000000     0          
O        O      0.322900000000     0.427100000000     0.000000000000     0          
O        O      0.322900000000     0.447900000000     0.375000000000     0          
O        O      0.303550000000     0.498300000000     0.376700000000     0          
O        O      0.266550000000     0.413100000000     0.163100000000     0          
O        O      0.303550000000     0.376700000000     0.498300000000     0          
O        O      0.286500000000     0.410850000000     0.036500000000     0          
O        O      0.250000000000     0.052100000000     0.197900000000     0          
O        O      0.233450000000     0.336900000000     0.086900000000     0          
O        O      0.248300000000     0.376700000000     0.053550000000     0          
O        O      0.214150000000     0.338500000000     0.036500000000     0          
O        O      0.211900000000     0.358450000000     0.163100000000     0          
O        O      0.251700000000     0.373300000000     0.196450000000     0          
O        O      0.213500000000     0.339150000000     0.213500000000     0          
O        O      0.197900000000     0.000000000000     0.302100000000     0          
O        O      0.211900000000     0.461900000000     0.266550000000     0          
O        O      0.411500000000     0.161500000000     0.089150000000     0          
O        O      0.196450000000     0.251700000000     0.373300000000     0          
O        O      0.250000000000     0.302100000000     0.447900000000     0          
O        O      0.288100000000     0.288100000000     0.483450000000     0          
O        O      0.248300000000     0.321450000000     0.498300000000     0          
O        O      0.286500000000     0.338500000000     0.464150000000     0          
O        O      0.196450000000     0.373300000000     0.251700000000     0          
O        O      0.213500000000     0.411500000000     0.285850000000     0          
O        O      0.088500000000     0.088500000000     0.160850000000     0          
O        O      0.197900000000     0.302100000000     0.000000000000     0          
O        O      0.233450000000     0.288100000000     0.038100000000     0          
O        O      0.197900000000     0.322900000000     0.125000000000     0          
O        O      0.177100000000     0.322900000000     0.250000000000     0          
O        O      0.126700000000     0.303550000000     0.248300000000     0          
O        O      0.177100000000     0.302100000000     0.375000000000     0          
O        O      0.213500000000     0.285850000000     0.411500000000     0          
O        O      0.214150000000     0.286500000000     0.088500000000     0          
O        O      0.126700000000     0.321450000000     0.376700000000     0          
O        O      0.211900000000     0.266550000000     0.461900000000     0          
O        O      0.178550000000     0.251700000000     0.001700000000     0          
O        O      0.288100000000     0.233450000000     0.038100000000     0          
O        O      0.248300000000     0.248300000000     0.071450000000     0          
O        O      0.286500000000     0.214150000000     0.088500000000     0          
O        O      0.302100000000     0.250000000000     0.447900000000     0          
O        O      0.266550000000     0.211900000000     0.461900000000     0          
O        O      0.251700000000     0.251700000000     0.428550000000     0          
O        O      0.285850000000     0.213500000000     0.411500000000     0          
O        O      0.321450000000     0.248300000000     0.498300000000     0          
O        O      0.038100000000     0.086900000000     0.141550000000     0          
O        O      0.373300000000     0.196450000000     0.251700000000     0          
O        O      0.373300000000     0.178550000000     0.123300000000     0          
O        O      0.461900000000     0.413100000000     0.358450000000     0          
O        O      0.302100000000     0.197900000000     0.000000000000     0          
O        O      0.302100000000     0.177100000000     0.375000000000     0          
O        O      0.322900000000     0.177100000000     0.250000000000     0          
O        O      0.322900000000     0.197900000000     0.125000000000     0          
O        O      0.197900000000     0.250000000000     0.052100000000     0          
O        O      0.447900000000     0.052100000000     0.500000000000     0          
O        O      0.483450000000     0.038100000000     0.538100000000     0          
O        O      0.498300000000     0.071450000000     0.998300000000     0          
O        O      0.464150000000     0.088500000000     0.536500000000     0          
O        O      0.447900000000     0.072900000000     0.625000000000     0          
O        O      0.461900000000     0.108450000000     0.663100000000     0          
O        O      0.428550000000     0.123300000000     0.623300000000     0          
O        O      0.411500000000     0.089150000000     0.661500000000     0          
O        O      0.427100000000     0.072900000000     0.750000000000     0          
O        O      0.391550000000     0.086900000000     0.788100000000     0          
O        O      0.376700000000     0.053550000000     0.748300000000     0          
O        O      0.410850000000     0.036500000000     0.786500000000     0          
O        O      0.427100000000     0.052100000000     0.875000000000     0          
O        O      0.413100000000     0.016550000000     0.913100000000     0          
O        O      0.446450000000     0.001700000000     0.873300000000     0          
O        O      0.463500000000     0.035850000000     0.911500000000     0          
O        O      0.483450000000     0.086900000000     0.586900000000     0          
O        O      0.498300000000     0.053550000000     0.626700000000     0          
O        O      0.464150000000     0.036500000000     0.588500000000     0          
O        O      0.413100000000     0.108450000000     0.711900000000     0          
O        O      0.446450000000     0.123300000000     0.751700000000     0          
O        O      0.463500000000     0.089150000000     0.713500000000     0          
O        O      0.391550000000     0.038100000000     0.836900000000     0          
O        O      0.376700000000     0.071450000000     0.876700000000     0          
O        O      0.410850000000     0.088500000000     0.838500000000     0          
O        O      0.461900000000     0.016550000000     0.961900000000     0          
O        O      0.428550000000     0.001700000000     0.501700000000     0          
O        O      0.411500000000     0.035850000000     0.963500000000     0          
O        O      0.000000000000     0.447900000000     0.552100000000     0          
O        O      0.038100000000     0.483450000000     0.538100000000     0          
O        O      0.498300000000     0.498300000000     0.571450000000     0          
O        O      0.036500000000     0.464150000000     0.588500000000     0          
O        O      0.052100000000     0.125000000000     0.677100000000     0          
O        O      0.016550000000     0.163100000000     0.663100000000     0          
O        O      0.001700000000     0.123300000000     0.696450000000     0          
O        O      0.035850000000     0.161500000000     0.713500000000     0          
O        O      0.375000000000     0.177100000000     0.802100000000     0          
O        O      0.336900000000     0.141550000000     0.788100000000     0          
O        O      0.376700000000     0.126700000000     0.821450000000     0          
O        O      0.338500000000     0.160850000000     0.838500000000     0          
O        O      0.322900000000     0.000000000000     0.927100000000     0          
O        O      0.358450000000     0.461900000000     0.913100000000     0          
O        O      0.373300000000     0.001700000000     0.946450000000     0          
O        O      0.339150000000     0.463500000000     0.963500000000     0          
O        O      0.000000000000     0.177100000000     0.572900000000     0          
O        O      0.038100000000     0.141550000000     0.586900000000     0          
O        O      0.498300000000     0.126700000000     0.553550000000     0          
O        O      0.036500000000     0.160850000000     0.536500000000     0          
O        O      0.322900000000     0.125000000000     0.697900000000     0          
O        O      0.358450000000     0.163100000000     0.711900000000     0          
O        O      0.373300000000     0.123300000000     0.678550000000     0          
O        O      0.339150000000     0.161500000000     0.661500000000     0          
O        O      0.375000000000     0.447900000000     0.822900000000     0          
O        O      0.336900000000     0.483450000000     0.836900000000     0          
O        O      0.376700000000     0.498300000000     0.803550000000     0          
O        O      0.338500000000     0.464150000000     0.786500000000     0          
O        O      0.052100000000     0.000000000000     0.947900000000     0          
O        O      0.016550000000     0.461900000000     0.961900000000     0          
O        O      0.001700000000     0.001700000000     0.928550000000     0          
O        O      0.035850000000     0.463500000000     0.911500000000     0          
O        O      0.038100000000     0.038100000000     0.983450000000     0          
O        O      0.071450000000     0.498300000000     0.998300000000     0          
O        O      0.088500000000     0.036500000000     0.964150000000     0          
O        O      0.302100000000     0.375000000000     0.677100000000     0          
O        O      0.288100000000     0.336900000000     0.641550000000     0          
O        O      0.321450000000     0.376700000000     0.626700000000     0          
O        O      0.338500000000     0.338500000000     0.660850000000     0          
O        O      0.125000000000     0.427100000000     0.802100000000     0          
O        O      0.163100000000     0.413100000000     0.766550000000     0          
O        O      0.123300000000     0.446450000000     0.751700000000     0          
O        O      0.161500000000     0.463500000000     0.785850000000     0          
O        O      0.072900000000     0.250000000000     0.927100000000     0          
O        O      0.086900000000     0.288100000000     0.891550000000     0          
O        O      0.053550000000     0.248300000000     0.876700000000     0          
O        O      0.036500000000     0.286500000000     0.910850000000     0          
O        O      0.000000000000     0.197900000000     0.802100000000     0          
O        O      0.461900000000     0.211900000000     0.766550000000     0          
O        O      0.001700000000     0.178550000000     0.751700000000     0          
O        O      0.463500000000     0.161500000000     0.785850000000     0          
O        O      0.072900000000     0.125000000000     0.947900000000     0          
O        O      0.086900000000     0.086900000000     0.983450000000     0          
O        O      0.053550000000     0.126700000000     0.998300000000     0          
O        O      0.036500000000     0.088500000000     0.964150000000     0          
O        O      0.125000000000     0.447900000000     0.572900000000     0          
O        O      0.163100000000     0.461900000000     0.608450000000     0          
O        O      0.123300000000     0.428550000000     0.623300000000     0          
O        O      0.161500000000     0.411500000000     0.589150000000     0          
O        O      0.250000000000     0.177100000000     0.822900000000     0          
O        O      0.211900000000     0.163100000000     0.858450000000     0          
O        O      0.251700000000     0.196450000000     0.873300000000     0          
O        O      0.213500000000     0.213500000000     0.839150000000     0          
O        O      0.052100000000     0.447900000000     0.500000000000     0          
O        O      0.001700000000     0.428550000000     0.501700000000     0          
O        O      0.035850000000     0.411500000000     0.963500000000     0          
O        O      0.052100000000     0.427100000000     0.875000000000     0          
O        O      0.038100000000     0.391550000000     0.836900000000     0          
O        O      0.071450000000     0.376700000000     0.876700000000     0          
O        O      0.088500000000     0.410850000000     0.838500000000     0          
O        O      0.072900000000     0.427100000000     0.750000000000     0          
O        O      0.108450000000     0.413100000000     0.711900000000     0          
O        O      0.089150000000     0.463500000000     0.713500000000     0          
O        O      0.072900000000     0.447900000000     0.625000000000     0          
O        O      0.086900000000     0.483450000000     0.586900000000     0          
O        O      0.053550000000     0.498300000000     0.626700000000     0          
O        O      0.016550000000     0.413100000000     0.913100000000     0          
O        O      0.001700000000     0.446450000000     0.873300000000     0          
O        O      0.086900000000     0.391550000000     0.788100000000     0          
O        O      0.053550000000     0.376700000000     0.748300000000     0          
O        O      0.036500000000     0.410850000000     0.786500000000     0          
O        O      0.108450000000     0.461900000000     0.663100000000     0          
O        O      0.089150000000     0.411500000000     0.661500000000     0          
O        O      0.088500000000     0.464150000000     0.536500000000     0          
O        O      0.000000000000     0.052100000000     0.947900000000     0          
O        O      0.447900000000     0.375000000000     0.822900000000     0          
O        O      0.483450000000     0.336900000000     0.836900000000     0          
O        O      0.498300000000     0.376700000000     0.803550000000     0          
O        O      0.464150000000     0.338500000000     0.786500000000     0          
O        O      0.125000000000     0.322900000000     0.697900000000     0          
O        O      0.163100000000     0.358450000000     0.711900000000     0          
O        O      0.123300000000     0.373300000000     0.678550000000     0          
O        O      0.161500000000     0.339150000000     0.661500000000     0          
O        O      0.177100000000     0.000000000000     0.572900000000     0          
O        O      0.141550000000     0.038100000000     0.586900000000     0          
O        O      0.126700000000     0.498300000000     0.553550000000     0          
O        O      0.160850000000     0.036500000000     0.536500000000     0          
O        O      0.000000000000     0.322900000000     0.927100000000     0          
O        O      0.461900000000     0.358450000000     0.913100000000     0          
O        O      0.001700000000     0.373300000000     0.946450000000     0          
O        O      0.463500000000     0.339150000000     0.963500000000     0          
O        O      0.177100000000     0.375000000000     0.802100000000     0          
O        O      0.141550000000     0.336900000000     0.788100000000     0          
O        O      0.126700000000     0.376700000000     0.821450000000     0          
O        O      0.160850000000     0.338500000000     0.838500000000     0          
O        O      0.125000000000     0.052100000000     0.677100000000     0          
O        O      0.163100000000     0.016550000000     0.663100000000     0          
O        O      0.123300000000     0.001700000000     0.696450000000     0          
O        O      0.161500000000     0.035850000000     0.713500000000     0          
O        O      0.447900000000     0.000000000000     0.552100000000     0          
O        O      0.461900000000     0.461900000000     0.516550000000     0          
O        O      0.411500000000     0.463500000000     0.535850000000     0          
O        O      0.197900000000     0.125000000000     0.822900000000     0          
O        O      0.178550000000     0.123300000000     0.873300000000     0          
O        O      0.161500000000     0.161500000000     0.839150000000     0          
O        O      0.375000000000     0.072900000000     0.697900000000     0          
O        O      0.336900000000     0.086900000000     0.733450000000     0          
O        O      0.338500000000     0.036500000000     0.714150000000     0          
O        O      0.427100000000     0.250000000000     0.572900000000     0          
O        O      0.413100000000     0.211900000000     0.608450000000     0          
O        O      0.446450000000     0.251700000000     0.623300000000     0          
O        O      0.463500000000     0.213500000000     0.589150000000     0          
O        O      0.000000000000     0.302100000000     0.697900000000     0          
O        O      0.038100000000     0.288100000000     0.733450000000     0          
O        O      0.498300000000     0.321450000000     0.748300000000     0          
O        O      0.036500000000     0.338500000000     0.714150000000     0          
O        O      0.427100000000     0.375000000000     0.552100000000     0          
O        O      0.413100000000     0.413100000000     0.516550000000     0          
O        O      0.446450000000     0.373300000000     0.501700000000     0          
O        O      0.463500000000     0.411500000000     0.535850000000     0          
O        O      0.375000000000     0.052100000000     0.927100000000     0          
O        O      0.336900000000     0.038100000000     0.891550000000     0          
O        O      0.338500000000     0.088500000000     0.910850000000     0          
O        O      0.250000000000     0.322900000000     0.677100000000     0          
O        O      0.248300000000     0.303550000000     0.626700000000     0          
O        O      0.286500000000     0.286500000000     0.660850000000     0          
O        O      0.447900000000     0.302100000000     0.750000000000     0          
O        O      0.483450000000     0.288100000000     0.788100000000     0          
O        O      0.447900000000     0.322900000000     0.875000000000     0          
O        O      0.428550000000     0.373300000000     0.873300000000     0          
O        O      0.411500000000     0.339150000000     0.911500000000     0          
O        O      0.427100000000     0.322900000000     0.500000000000     0          
O        O      0.391550000000     0.336900000000     0.538100000000     0          
O        O      0.376700000000     0.303550000000     0.998300000000     0          
O        O      0.410850000000     0.286500000000     0.536500000000     0          
O        O      0.427100000000     0.302100000000     0.625000000000     0          
O        O      0.413100000000     0.266550000000     0.663100000000     0          
O        O      0.463500000000     0.285850000000     0.661500000000     0          
O        O      0.498300000000     0.303550000000     0.876700000000     0          
O        O      0.464150000000     0.286500000000     0.838500000000     0          
O        O      0.413100000000     0.358450000000     0.961900000000     0          
O        O      0.391550000000     0.288100000000     0.586900000000     0          
O        O      0.376700000000     0.321450000000     0.626700000000     0          
O        O      0.410850000000     0.338500000000     0.588500000000     0          
O        O      0.461900000000     0.266550000000     0.711900000000     0          
O        O      0.428550000000     0.251700000000     0.751700000000     0          
O        O      0.411500000000     0.285850000000     0.713500000000     0          
O        O      0.038100000000     0.233450000000     0.788100000000     0          
O        O      0.498300000000     0.248300000000     0.821450000000     0          
O        O      0.036500000000     0.214150000000     0.838500000000     0          
O        O      0.052100000000     0.375000000000     0.927100000000     0          
O        O      0.375000000000     0.427100000000     0.552100000000     0          
O        O      0.336900000000     0.391550000000     0.538100000000     0          
O        O      0.376700000000     0.376700000000     0.571450000000     0          
O        O      0.338500000000     0.410850000000     0.588500000000     0          
O        O      0.322900000000     0.250000000000     0.677100000000     0          
O        O      0.358450000000     0.211900000000     0.663100000000     0          
O        O      0.373300000000     0.251700000000     0.696450000000     0          
O        O      0.339150000000     0.213500000000     0.713500000000     0          
O        O      0.000000000000     0.427100000000     0.822900000000     0          
O        O      0.322900000000     0.375000000000     0.947900000000     0          
O        O      0.358450000000     0.413100000000     0.961900000000     0          
O        O      0.373300000000     0.373300000000     0.928550000000     0          
O        O      0.339150000000     0.411500000000     0.911500000000     0          
O        O      0.375000000000     0.197900000000     0.572900000000     0          
O        O      0.336900000000     0.233450000000     0.586900000000     0          
O        O      0.376700000000     0.248300000000     0.553550000000     0          
O        O      0.338500000000     0.214150000000     0.536500000000     0          
O        O      0.052100000000     0.250000000000     0.697900000000     0          
O        O      0.016550000000     0.211900000000     0.711900000000     0          
O        O      0.001700000000     0.251700000000     0.678550000000     0          
O        O      0.035850000000     0.213500000000     0.661500000000     0          
O        O      0.071450000000     0.248300000000     0.748300000000     0          
O        O      0.088500000000     0.286500000000     0.714150000000     0          
O        O      0.302100000000     0.125000000000     0.927100000000     0          
O        O      0.288100000000     0.086900000000     0.891550000000     0          
O        O      0.321450000000     0.126700000000     0.876700000000     0          
O        O      0.125000000000     0.177100000000     0.552100000000     0          
O        O      0.163100000000     0.163100000000     0.516550000000     0          
O        O      0.123300000000     0.196450000000     0.501700000000     0          
O        O      0.161500000000     0.213500000000     0.535850000000     0          
O        O      0.072900000000     0.000000000000     0.677100000000     0          
O        O      0.086900000000     0.038100000000     0.641550000000     0          
O        O      0.036500000000     0.036500000000     0.660850000000     0          
O        O      0.072900000000     0.375000000000     0.697900000000     0          
O        O      0.086900000000     0.336900000000     0.733450000000     0          
O        O      0.125000000000     0.197900000000     0.822900000000     0          
O        O      0.163100000000     0.211900000000     0.858450000000     0          
O        O      0.123300000000     0.178550000000     0.873300000000     0          
O        O      0.250000000000     0.427100000000     0.572900000000     0          
O        O      0.211900000000     0.413100000000     0.608450000000     0          
O        O      0.251700000000     0.446450000000     0.623300000000     0          
O        O      0.213500000000     0.463500000000     0.589150000000     0          
O        O      0.052100000000     0.197900000000     0.750000000000     0          
O        O      0.052100000000     0.177100000000     0.625000000000     0          
O        O      0.071450000000     0.126700000000     0.626700000000     0          
O        O      0.088500000000     0.160850000000     0.588500000000     0          
O        O      0.072900000000     0.177100000000     0.500000000000     0          
O        O      0.108450000000     0.163100000000     0.961900000000     0          
O        O      0.089150000000     0.213500000000     0.963500000000     0          
O        O      0.072900000000     0.197900000000     0.875000000000     0          
O        O      0.086900000000     0.233450000000     0.836900000000     0          
O        O      0.001700000000     0.196450000000     0.623300000000     0          
O        O      0.086900000000     0.141550000000     0.538100000000     0          
O        O      0.108450000000     0.211900000000     0.913100000000     0          
O        O      0.089150000000     0.161500000000     0.911500000000     0          
O        O      0.088500000000     0.214150000000     0.786500000000     0          
O        O      0.447900000000     0.125000000000     0.572900000000     0          
O        O      0.125000000000     0.072900000000     0.947900000000     0          
O        O      0.163100000000     0.108450000000     0.961900000000     0          
O        O      0.123300000000     0.123300000000     0.928550000000     0          
O        O      0.161500000000     0.089150000000     0.911500000000     0          
O        O      0.177100000000     0.250000000000     0.822900000000     0          
O        O      0.141550000000     0.288100000000     0.836900000000     0          
O        O      0.126700000000     0.248300000000     0.803550000000     0          
O        O      0.160850000000     0.286500000000     0.786500000000     0          
O        O      0.000000000000     0.072900000000     0.677100000000     0          
O        O      0.177100000000     0.125000000000     0.552100000000     0          
O        O      0.141550000000     0.086900000000     0.538100000000     0          
O        O      0.126700000000     0.126700000000     0.571450000000     0          
O        O      0.160850000000     0.088500000000     0.588500000000     0          
O        O      0.125000000000     0.302100000000     0.927100000000     0          
O        O      0.163100000000     0.266550000000     0.913100000000     0          
O        O      0.123300000000     0.251700000000     0.946450000000     0          
O        O      0.161500000000     0.285850000000     0.963500000000     0          
O        O      0.447900000000     0.250000000000     0.802100000000     0          
O        O      0.411500000000     0.213500000000     0.785850000000     0          
O        O      0.197900000000     0.375000000000     0.572900000000     0          
O        O      0.178550000000     0.373300000000     0.623300000000     0          
O        O      0.375000000000     0.322900000000     0.947900000000     0          
O        O      0.336900000000     0.336900000000     0.983450000000     0          
O        O      0.338500000000     0.286500000000     0.964150000000     0          
O        O      0.427100000000     0.000000000000     0.822900000000     0          
O        O      0.413100000000     0.461900000000     0.858450000000     0          
O        O      0.463500000000     0.463500000000     0.839150000000     0          
O        O      0.427100000000     0.125000000000     0.802100000000     0          
O        O      0.413100000000     0.163100000000     0.766550000000     0          
O        O      0.375000000000     0.302100000000     0.677100000000     0          
O        O      0.336900000000     0.288100000000     0.641550000000     0          
O        O      0.250000000000     0.072900000000     0.927100000000     0          
O        O      0.248300000000     0.053550000000     0.876700000000     0          
O        O      0.286500000000     0.036500000000     0.910850000000     0          
O        O      0.197900000000     0.052100000000     0.750000000000     0          
O        O      0.233450000000     0.038100000000     0.788100000000     0          
O        O      0.248300000000     0.071450000000     0.748300000000     0          
O        O      0.214150000000     0.088500000000     0.786500000000     0          
O        O      0.197900000000     0.072900000000     0.875000000000     0          
O        O      0.211900000000     0.108450000000     0.913100000000     0          
O        O      0.177100000000     0.072900000000     0.500000000000     0          
O        O      0.126700000000     0.053550000000     0.998300000000     0          
O        O      0.177100000000     0.052100000000     0.625000000000     0          
O        O      0.196450000000     0.001700000000     0.623300000000     0          
O        O      0.213500000000     0.035850000000     0.661500000000     0          
O        O      0.233450000000     0.086900000000     0.836900000000     0          
O        O      0.214150000000     0.036500000000     0.838500000000     0          
O        O      0.196450000000     0.123300000000     0.501700000000     0          
O        O      0.213500000000     0.089150000000     0.963500000000     0          
O        O      0.126700000000     0.071450000000     0.626700000000     0          
O        O      0.211900000000     0.016550000000     0.711900000000     0          
O        O      0.178550000000     0.001700000000     0.751700000000     0          
O        O      0.250000000000     0.447900000000     0.802100000000     0          
O        O      0.288100000000     0.483450000000     0.788100000000     0          
O        O      0.248300000000     0.498300000000     0.821450000000     0          
O        O      0.286500000000     0.464150000000     0.838500000000     0          
O        O      0.266550000000     0.163100000000     0.913100000000     0          
O        O      0.251700000000     0.123300000000     0.946450000000     0          
O        O      0.285850000000     0.161500000000     0.963500000000     0          
O        O      0.288100000000     0.141550000000     0.836900000000     0          
O        O      0.248300000000     0.126700000000     0.803550000000     0          
O        O      0.286500000000     0.160850000000     0.786500000000     0          
O        O      0.302100000000     0.000000000000     0.697900000000     0          
O        O      0.266550000000     0.461900000000     0.711900000000     0          
O        O      0.251700000000     0.001700000000     0.678550000000     0          
O        O      0.285850000000     0.463500000000     0.661500000000     0          
O        O      0.288100000000     0.038100000000     0.733450000000     0          
O        O      0.321450000000     0.498300000000     0.748300000000     0          
O        O      0.038100000000     0.336900000000     0.891550000000     0          
O        O      0.088500000000     0.338500000000     0.910850000000     0          
O        O      0.373300000000     0.446450000000     0.501700000000     0          
O        O      0.303550000000     0.248300000000     0.626700000000     0          
O        O      0.250000000000     0.197900000000     0.552100000000     0          
O        O      0.211900000000     0.211900000000     0.516550000000     0          
O        O      0.251700000000     0.178550000000     0.501700000000     0          
O        O      0.213500000000     0.161500000000     0.535850000000     0          
O        O      0.303550000000     0.126700000000     0.748300000000     0          
O        O      0.286500000000     0.088500000000     0.714150000000     0          
O        O      0.373300000000     0.428550000000     0.873300000000     0          
O        O      0.411500000000     0.411500000000     0.839150000000     0          
O        O      0.461900000000     0.163100000000     0.608450000000     0          
O        O      0.302100000000     0.447900000000     0.750000000000     0          
O        O      0.251700000000     0.428550000000     0.751700000000     0          
O        O      0.285850000000     0.411500000000     0.713500000000     0          
O        O      0.302100000000     0.427100000000     0.625000000000     0          
O        O      0.288100000000     0.391550000000     0.586900000000     0          
O        O      0.322900000000     0.427100000000     0.500000000000     0          
O        O      0.322900000000     0.447900000000     0.875000000000     0          
O        O      0.303550000000     0.498300000000     0.876700000000     0          
O        O      0.266550000000     0.413100000000     0.663100000000     0          
O        O      0.303550000000     0.376700000000     0.998300000000     0          
O        O      0.286500000000     0.410850000000     0.536500000000     0          
O        O      0.250000000000     0.052100000000     0.697900000000     0          
O        O      0.233450000000     0.336900000000     0.586900000000     0          
O        O      0.248300000000     0.376700000000     0.553550000000     0          
O        O      0.214150000000     0.338500000000     0.536500000000     0          
O        O      0.211900000000     0.358450000000     0.663100000000     0          
O        O      0.251700000000     0.373300000000     0.696450000000     0          
O        O      0.213500000000     0.339150000000     0.713500000000     0          
O        O      0.197900000000     0.000000000000     0.802100000000     0          
O        O      0.211900000000     0.461900000000     0.766550000000     0          
O        O      0.411500000000     0.161500000000     0.589150000000     0          
O        O      0.196450000000     0.251700000000     0.873300000000     0          
O        O      0.250000000000     0.302100000000     0.947900000000     0          
O        O      0.288100000000     0.288100000000     0.983450000000     0          
O        O      0.248300000000     0.321450000000     0.998300000000     0          
O        O      0.286500000000     0.338500000000     0.964150000000     0          
O        O      0.196450000000     0.373300000000     0.751700000000     0          
O        O      0.213500000000     0.411500000000     0.785850000000     0          
O        O      0.088500000000     0.088500000000     0.660850000000     0          
O        O      0.197900000000     0.302100000000     0.500000000000     0          
O        O      0.233450000000     0.288100000000     0.538100000000     0          
O        O      0.197900000000     0.322900000000     0.625000000000     0          
O        O      0.177100000000     0.322900000000     0.750000000000     0          
O        O      0.126700000000     0.303550000000     0.748300000000     0          
O        O      0.177100000000     0.302100000000     0.875000000000     0          
O        O      0.213500000000     0.285850000000     0.911500000000     0          
O        O      0.214150000000     0.286500000000     0.588500000000     0          
O        O      0.126700000000     0.321450000000     0.876700000000     0          
O        O      0.211900000000     0.266550000000     0.961900000000     0          
O        O      0.178550000000     0.251700000000     0.501700000000     0          
O        O      0.288100000000     0.233450000000     0.538100000000     0          
O        O      0.248300000000     0.248300000000     0.571450000000     0          
O        O      0.286500000000     0.214150000000     0.588500000000     0          
O        O      0.302100000000     0.250000000000     0.947900000000     0          
O        O      0.266550000000     0.211900000000     0.961900000000     0          
O        O      0.251700000000     0.251700000000     0.928550000000     0          
O        O      0.285850000000     0.213500000000     0.911500000000     0          
O        O      0.321450000000     0.248300000000     0.998300000000     0          
O        O      0.038100000000     0.086900000000     0.641550000000     0          
O        O      0.373300000000     0.196450000000     0.751700000000     0          
O        O      0.373300000000     0.178550000000     0.623300000000     0          
O        O      0.461900000000     0.413100000000     0.858450000000     0          
O        O      0.302100000000     0.197900000000     0.500000000000     0          
O        O      0.302100000000     0.177100000000     0.875000000000     0          
O        O      0.322900000000     0.177100000000     0.750000000000     0          
O        O      0.322900000000     0.197900000000     0.625000000000     0          
O        O      0.197900000000     0.250000000000     0.552100000000     0          
O        O      0.447900000000     0.552100000000     0.000000000000     0          
O        O      0.483450000000     0.538100000000     0.038100000000     0          
O        O      0.498300000000     0.571450000000     0.498300000000     0          
O        O      0.464150000000     0.588500000000     0.036500000000     0          
O        O      0.447900000000     0.572900000000     0.125000000000     0          
O        O      0.461900000000     0.608450000000     0.163100000000     0          
O        O      0.428550000000     0.623300000000     0.123300000000     0          
O        O      0.411500000000     0.589150000000     0.161500000000     0          
O        O      0.427100000000     0.572900000000     0.250000000000     0          
O        O      0.391550000000     0.586900000000     0.288100000000     0          
O        O      0.376700000000     0.553550000000     0.248300000000     0          
O        O      0.410850000000     0.536500000000     0.286500000000     0          
O        O      0.427100000000     0.552100000000     0.375000000000     0          
O        O      0.413100000000     0.516550000000     0.413100000000     0          
O        O      0.446450000000     0.501700000000     0.373300000000     0          
O        O      0.463500000000     0.535850000000     0.411500000000     0          
O        O      0.483450000000     0.586900000000     0.086900000000     0          
O        O      0.498300000000     0.553550000000     0.126700000000     0          
O        O      0.464150000000     0.536500000000     0.088500000000     0          
O        O      0.413100000000     0.608450000000     0.211900000000     0          
O        O      0.446450000000     0.623300000000     0.251700000000     0          
O        O      0.463500000000     0.589150000000     0.213500000000     0          
O        O      0.391550000000     0.538100000000     0.336900000000     0          
O        O      0.376700000000     0.571450000000     0.376700000000     0          
O        O      0.410850000000     0.588500000000     0.338500000000     0          
O        O      0.461900000000     0.516550000000     0.461900000000     0          
O        O      0.428550000000     0.501700000000     0.001700000000     0          
O        O      0.411500000000     0.535850000000     0.463500000000     0          
O        O      0.000000000000     0.947900000000     0.052100000000     0          
O        O      0.038100000000     0.983450000000     0.038100000000     0          
O        O      0.498300000000     0.998300000000     0.071450000000     0          
O        O      0.036500000000     0.964150000000     0.088500000000     0          
O        O      0.052100000000     0.625000000000     0.177100000000     0          
O        O      0.016550000000     0.663100000000     0.163100000000     0          
O        O      0.001700000000     0.623300000000     0.196450000000     0          
O        O      0.035850000000     0.661500000000     0.213500000000     0          
O        O      0.375000000000     0.677100000000     0.302100000000     0          
O        O      0.336900000000     0.641550000000     0.288100000000     0          
O        O      0.376700000000     0.626700000000     0.321450000000     0          
O        O      0.338500000000     0.660850000000     0.338500000000     0          
O        O      0.322900000000     0.500000000000     0.427100000000     0          
O        O      0.358450000000     0.961900000000     0.413100000000     0          
O        O      0.373300000000     0.501700000000     0.446450000000     0          
O        O      0.339150000000     0.963500000000     0.463500000000     0          
O        O      0.000000000000     0.677100000000     0.072900000000     0          
O        O      0.038100000000     0.641550000000     0.086900000000     0          
O        O      0.498300000000     0.626700000000     0.053550000000     0          
O        O      0.036500000000     0.660850000000     0.036500000000     0          
O        O      0.322900000000     0.625000000000     0.197900000000     0          
O        O      0.358450000000     0.663100000000     0.211900000000     0          
O        O      0.373300000000     0.623300000000     0.178550000000     0          
O        O      0.339150000000     0.661500000000     0.161500000000     0          
O        O      0.375000000000     0.947900000000     0.322900000000     0          
O        O      0.336900000000     0.983450000000     0.336900000000     0          
O        O      0.376700000000     0.998300000000     0.303550000000     0          
O        O      0.338500000000     0.964150000000     0.286500000000     0          
O        O      0.052100000000     0.500000000000     0.447900000000     0          
O        O      0.016550000000     0.961900000000     0.461900000000     0          
O        O      0.001700000000     0.501700000000     0.428550000000     0          
O        O      0.035850000000     0.963500000000     0.411500000000     0          
O        O      0.038100000000     0.538100000000     0.483450000000     0          
O        O      0.071450000000     0.998300000000     0.498300000000     0          
O        O      0.088500000000     0.536500000000     0.464150000000     0          
O        O      0.302100000000     0.875000000000     0.177100000000     0          
O        O      0.288100000000     0.836900000000     0.141550000000     0          
O        O      0.321450000000     0.876700000000     0.126700000000     0          
O        O      0.338500000000     0.838500000000     0.160850000000     0          
O        O      0.125000000000     0.927100000000     0.302100000000     0          
O        O      0.163100000000     0.913100000000     0.266550000000     0          
O        O      0.123300000000     0.946450000000     0.251700000000     0          
O        O      0.161500000000     0.963500000000     0.285850000000     0          
O        O      0.072900000000     0.750000000000     0.427100000000     0          
O        O      0.086900000000     0.788100000000     0.391550000000     0          
O        O      0.053550000000     0.748300000000     0.376700000000     0          
O        O      0.036500000000     0.786500000000     0.410850000000     0          
O        O      0.000000000000     0.697900000000     0.302100000000     0          
O        O      0.461900000000     0.711900000000     0.266550000000     0          
O        O      0.001700000000     0.678550000000     0.251700000000     0          
O        O      0.463500000000     0.661500000000     0.285850000000     0          
O        O      0.072900000000     0.625000000000     0.447900000000     0          
O        O      0.086900000000     0.586900000000     0.483450000000     0          
O        O      0.053550000000     0.626700000000     0.498300000000     0          
O        O      0.036500000000     0.588500000000     0.464150000000     0          
O        O      0.125000000000     0.947900000000     0.072900000000     0          
O        O      0.163100000000     0.961900000000     0.108450000000     0          
O        O      0.123300000000     0.928550000000     0.123300000000     0          
O        O      0.161500000000     0.911500000000     0.089150000000     0          
O        O      0.250000000000     0.677100000000     0.322900000000     0          
O        O      0.211900000000     0.663100000000     0.358450000000     0          
O        O      0.251700000000     0.696450000000     0.373300000000     0          
O        O      0.213500000000     0.713500000000     0.339150000000     0          
O        O      0.052100000000     0.947900000000     0.000000000000     0          
O        O      0.001700000000     0.928550000000     0.001700000000     0          
O        O      0.035850000000     0.911500000000     0.463500000000     0          
O        O      0.052100000000     0.927100000000     0.375000000000     0          
O        O      0.038100000000     0.891550000000     0.336900000000     0          
O        O      0.071450000000     0.876700000000     0.376700000000     0          
O        O      0.088500000000     0.910850000000     0.338500000000     0          
O        O      0.072900000000     0.927100000000     0.250000000000     0          
O        O      0.108450000000     0.913100000000     0.211900000000     0          
O        O      0.089150000000     0.963500000000     0.213500000000     0          
O        O      0.072900000000     0.947900000000     0.125000000000     0          
O        O      0.086900000000     0.983450000000     0.086900000000     0          
O        O      0.053550000000     0.998300000000     0.126700000000     0          
O        O      0.016550000000     0.913100000000     0.413100000000     0          
O        O      0.001700000000     0.946450000000     0.373300000000     0          
O        O      0.086900000000     0.891550000000     0.288100000000     0          
O        O      0.053550000000     0.876700000000     0.248300000000     0          
O        O      0.036500000000     0.910850000000     0.286500000000     0          
O        O      0.108450000000     0.961900000000     0.163100000000     0          
O        O      0.089150000000     0.911500000000     0.161500000000     0          
O        O      0.088500000000     0.964150000000     0.036500000000     0          
O        O      0.000000000000     0.552100000000     0.447900000000     0          
O        O      0.447900000000     0.875000000000     0.322900000000     0          
O        O      0.483450000000     0.836900000000     0.336900000000     0          
O        O      0.498300000000     0.876700000000     0.303550000000     0          
O        O      0.464150000000     0.838500000000     0.286500000000     0          
O        O      0.125000000000     0.822900000000     0.197900000000     0          
O        O      0.163100000000     0.858450000000     0.211900000000     0          
O        O      0.123300000000     0.873300000000     0.178550000000     0          
O        O      0.161500000000     0.839150000000     0.161500000000     0          
O        O      0.177100000000     0.500000000000     0.072900000000     0          
O        O      0.141550000000     0.538100000000     0.086900000000     0          
O        O      0.126700000000     0.998300000000     0.053550000000     0          
O        O      0.160850000000     0.536500000000     0.036500000000     0          
O        O      0.000000000000     0.822900000000     0.427100000000     0          
O        O      0.461900000000     0.858450000000     0.413100000000     0          
O        O      0.001700000000     0.873300000000     0.446450000000     0          
O        O      0.463500000000     0.839150000000     0.463500000000     0          
O        O      0.177100000000     0.875000000000     0.302100000000     0          
O        O      0.141550000000     0.836900000000     0.288100000000     0          
O        O      0.126700000000     0.876700000000     0.321450000000     0          
O        O      0.160850000000     0.838500000000     0.338500000000     0          
O        O      0.125000000000     0.552100000000     0.177100000000     0          
O        O      0.163100000000     0.516550000000     0.163100000000     0          
O        O      0.123300000000     0.501700000000     0.196450000000     0          
O        O      0.161500000000     0.535850000000     0.213500000000     0          
O        O      0.447900000000     0.500000000000     0.052100000000     0          
O        O      0.461900000000     0.961900000000     0.016550000000     0          
O        O      0.411500000000     0.963500000000     0.035850000000     0          
O        O      0.197900000000     0.625000000000     0.322900000000     0          
O        O      0.178550000000     0.623300000000     0.373300000000     0          
O        O      0.161500000000     0.661500000000     0.339150000000     0          
O        O      0.375000000000     0.572900000000     0.197900000000     0          
O        O      0.336900000000     0.586900000000     0.233450000000     0          
O        O      0.338500000000     0.536500000000     0.214150000000     0          
O        O      0.427100000000     0.750000000000     0.072900000000     0          
O        O      0.413100000000     0.711900000000     0.108450000000     0          
O        O      0.446450000000     0.751700000000     0.123300000000     0          
O        O      0.463500000000     0.713500000000     0.089150000000     0          
O        O      0.000000000000     0.802100000000     0.197900000000     0          
O        O      0.038100000000     0.788100000000     0.233450000000     0          
O        O      0.498300000000     0.821450000000     0.248300000000     0          
O        O      0.036500000000     0.838500000000     0.214150000000     0          
O        O      0.427100000000     0.875000000000     0.052100000000     0          
O        O      0.413100000000     0.913100000000     0.016550000000     0          
O        O      0.446450000000     0.873300000000     0.001700000000     0          
O        O      0.463500000000     0.911500000000     0.035850000000     0          
O        O      0.375000000000     0.552100000000     0.427100000000     0          
O        O      0.336900000000     0.538100000000     0.391550000000     0          
O        O      0.338500000000     0.588500000000     0.410850000000     0          
O        O      0.250000000000     0.822900000000     0.177100000000     0          
O        O      0.248300000000     0.803550000000     0.126700000000     0          
O        O      0.286500000000     0.786500000000     0.160850000000     0          
O        O      0.447900000000     0.802100000000     0.250000000000     0          
O        O      0.483450000000     0.788100000000     0.288100000000     0          
O        O      0.447900000000     0.822900000000     0.375000000000     0          
O        O      0.428550000000     0.873300000000     0.373300000000     0          
O        O      0.411500000000     0.839150000000     0.411500000000     0          
O        O      0.427100000000     0.822900000000     0.000000000000     0          
O        O      0.391550000000     0.836900000000     0.038100000000     0          
O        O      0.376700000000     0.803550000000     0.498300000000     0          
O        O      0.410850000000     0.786500000000     0.036500000000     0          
O        O      0.427100000000     0.802100000000     0.125000000000     0          
O        O      0.413100000000     0.766550000000     0.163100000000     0          
O        O      0.463500000000     0.785850000000     0.161500000000     0          
O        O      0.498300000000     0.803550000000     0.376700000000     0          
O        O      0.464150000000     0.786500000000     0.338500000000     0          
O        O      0.413100000000     0.858450000000     0.461900000000     0          
O        O      0.391550000000     0.788100000000     0.086900000000     0          
O        O      0.376700000000     0.821450000000     0.126700000000     0          
O        O      0.410850000000     0.838500000000     0.088500000000     0          
O        O      0.461900000000     0.766550000000     0.211900000000     0          
O        O      0.428550000000     0.751700000000     0.251700000000     0          
O        O      0.411500000000     0.785850000000     0.213500000000     0          
O        O      0.038100000000     0.733450000000     0.288100000000     0          
O        O      0.498300000000     0.748300000000     0.321450000000     0          
O        O      0.036500000000     0.714150000000     0.338500000000     0          
O        O      0.052100000000     0.875000000000     0.427100000000     0          
O        O      0.375000000000     0.927100000000     0.052100000000     0          
O        O      0.336900000000     0.891550000000     0.038100000000     0          
O        O      0.376700000000     0.876700000000     0.071450000000     0          
O        O      0.338500000000     0.910850000000     0.088500000000     0          
O        O      0.322900000000     0.750000000000     0.177100000000     0          
O        O      0.358450000000     0.711900000000     0.163100000000     0          
O        O      0.373300000000     0.751700000000     0.196450000000     0          
O        O      0.339150000000     0.713500000000     0.213500000000     0          
O        O      0.000000000000     0.927100000000     0.322900000000     0          
O        O      0.322900000000     0.875000000000     0.447900000000     0          
O        O      0.358450000000     0.913100000000     0.461900000000     0          
O        O      0.373300000000     0.873300000000     0.428550000000     0          
O        O      0.339150000000     0.911500000000     0.411500000000     0          
O        O      0.375000000000     0.697900000000     0.072900000000     0          
O        O      0.336900000000     0.733450000000     0.086900000000     0          
O        O      0.376700000000     0.748300000000     0.053550000000     0          
O        O      0.338500000000     0.714150000000     0.036500000000     0          
O        O      0.052100000000     0.750000000000     0.197900000000     0          
O        O      0.016550000000     0.711900000000     0.211900000000     0          
O        O      0.001700000000     0.751700000000     0.178550000000     0          
O        O      0.035850000000     0.713500000000     0.161500000000     0          
O        O      0.071450000000     0.748300000000     0.248300000000     0          
O        O      0.088500000000     0.786500000000     0.214150000000     0          
O        O      0.302100000000     0.625000000000     0.427100000000     0          
O        O      0.288100000000     0.586900000000     0.391550000000     0          
O        O      0.321450000000     0.626700000000     0.376700000000     0          
O        O      0.125000000000     0.677100000000     0.052100000000     0          
O        O      0.163100000000     0.663100000000     0.016550000000     0          
O        O      0.123300000000     0.696450000000     0.001700000000     0          
O        O      0.161500000000     0.713500000000     0.035850000000     0          
O        O      0.072900000000     0.500000000000     0.177100000000     0          
O        O      0.086900000000     0.538100000000     0.141550000000     0          
O        O      0.036500000000     0.536500000000     0.160850000000     0          
O        O      0.072900000000     0.875000000000     0.197900000000     0          
O        O      0.086900000000     0.836900000000     0.233450000000     0          
O        O      0.125000000000     0.697900000000     0.322900000000     0          
O        O      0.163100000000     0.711900000000     0.358450000000     0          
O        O      0.123300000000     0.678550000000     0.373300000000     0          
O        O      0.250000000000     0.927100000000     0.072900000000     0          
O        O      0.211900000000     0.913100000000     0.108450000000     0          
O        O      0.251700000000     0.946450000000     0.123300000000     0          
O        O      0.213500000000     0.963500000000     0.089150000000     0          
O        O      0.052100000000     0.697900000000     0.250000000000     0          
O        O      0.052100000000     0.677100000000     0.125000000000     0          
O        O      0.071450000000     0.626700000000     0.126700000000     0          
O        O      0.088500000000     0.660850000000     0.088500000000     0          
O        O      0.072900000000     0.677100000000     0.000000000000     0          
O        O      0.108450000000     0.663100000000     0.461900000000     0          
O        O      0.089150000000     0.713500000000     0.463500000000     0          
O        O      0.072900000000     0.697900000000     0.375000000000     0          
O        O      0.086900000000     0.733450000000     0.336900000000     0          
O        O      0.001700000000     0.696450000000     0.123300000000     0          
O        O      0.086900000000     0.641550000000     0.038100000000     0          
O        O      0.108450000000     0.711900000000     0.413100000000     0          
O        O      0.089150000000     0.661500000000     0.411500000000     0          
O        O      0.088500000000     0.714150000000     0.286500000000     0          
O        O      0.447900000000     0.625000000000     0.072900000000     0          
O        O      0.125000000000     0.572900000000     0.447900000000     0          
O        O      0.163100000000     0.608450000000     0.461900000000     0          
O        O      0.123300000000     0.623300000000     0.428550000000     0          
O        O      0.161500000000     0.589150000000     0.411500000000     0          
O        O      0.177100000000     0.750000000000     0.322900000000     0          
O        O      0.141550000000     0.788100000000     0.336900000000     0          
O        O      0.126700000000     0.748300000000     0.303550000000     0          
O        O      0.160850000000     0.786500000000     0.286500000000     0          
O        O      0.000000000000     0.572900000000     0.177100000000     0          
O        O      0.177100000000     0.625000000000     0.052100000000     0          
O        O      0.141550000000     0.586900000000     0.038100000000     0          
O        O      0.126700000000     0.626700000000     0.071450000000     0          
O        O      0.160850000000     0.588500000000     0.088500000000     0          
O        O      0.125000000000     0.802100000000     0.427100000000     0          
O        O      0.163100000000     0.766550000000     0.413100000000     0          
O        O      0.123300000000     0.751700000000     0.446450000000     0          
O        O      0.161500000000     0.785850000000     0.463500000000     0          
O        O      0.447900000000     0.750000000000     0.302100000000     0          
O        O      0.411500000000     0.713500000000     0.285850000000     0          
O        O      0.197900000000     0.875000000000     0.072900000000     0          
O        O      0.178550000000     0.873300000000     0.123300000000     0          
O        O      0.375000000000     0.822900000000     0.447900000000     0          
O        O      0.336900000000     0.836900000000     0.483450000000     0          
O        O      0.338500000000     0.786500000000     0.464150000000     0          
O        O      0.427100000000     0.500000000000     0.322900000000     0          
O        O      0.413100000000     0.961900000000     0.358450000000     0          
O        O      0.463500000000     0.963500000000     0.339150000000     0          
O        O      0.427100000000     0.625000000000     0.302100000000     0          
O        O      0.413100000000     0.663100000000     0.266550000000     0          
O        O      0.375000000000     0.802100000000     0.177100000000     0          
O        O      0.336900000000     0.788100000000     0.141550000000     0          
O        O      0.250000000000     0.572900000000     0.427100000000     0          
O        O      0.248300000000     0.553550000000     0.376700000000     0          
O        O      0.286500000000     0.536500000000     0.410850000000     0          
O        O      0.197900000000     0.552100000000     0.250000000000     0          
O        O      0.233450000000     0.538100000000     0.288100000000     0          
O        O      0.248300000000     0.571450000000     0.248300000000     0          
O        O      0.214150000000     0.588500000000     0.286500000000     0          
O        O      0.197900000000     0.572900000000     0.375000000000     0          
O        O      0.211900000000     0.608450000000     0.413100000000     0          
O        O      0.177100000000     0.572900000000     0.000000000000     0          
O        O      0.126700000000     0.553550000000     0.498300000000     0          
O        O      0.177100000000     0.552100000000     0.125000000000     0          
O        O      0.196450000000     0.501700000000     0.123300000000     0          
O        O      0.213500000000     0.535850000000     0.161500000000     0          
O        O      0.233450000000     0.586900000000     0.336900000000     0          
O        O      0.214150000000     0.536500000000     0.338500000000     0          
O        O      0.196450000000     0.623300000000     0.001700000000     0          
O        O      0.213500000000     0.589150000000     0.463500000000     0          
O        O      0.126700000000     0.571450000000     0.126700000000     0          
O        O      0.211900000000     0.516550000000     0.211900000000     0          
O        O      0.178550000000     0.501700000000     0.251700000000     0          
O        O      0.250000000000     0.947900000000     0.302100000000     0          
O        O      0.288100000000     0.983450000000     0.288100000000     0          
O        O      0.248300000000     0.998300000000     0.321450000000     0          
O        O      0.286500000000     0.964150000000     0.338500000000     0          
O        O      0.266550000000     0.663100000000     0.413100000000     0          
O        O      0.251700000000     0.623300000000     0.446450000000     0          
O        O      0.285850000000     0.661500000000     0.463500000000     0          
O        O      0.288100000000     0.641550000000     0.336900000000     0          
O        O      0.248300000000     0.626700000000     0.303550000000     0          
O        O      0.286500000000     0.660850000000     0.286500000000     0          
O        O      0.302100000000     0.500000000000     0.197900000000     0          
O        O      0.266550000000     0.961900000000     0.211900000000     0          
O        O      0.251700000000     0.501700000000     0.178550000000     0          
O        O      0.285850000000     0.963500000000     0.161500000000     0          
O        O      0.288100000000     0.538100000000     0.233450000000     0          
O        O      0.321450000000     0.998300000000     0.248300000000     0          
O        O      0.038100000000     0.836900000000     0.391550000000     0          
O        O      0.088500000000     0.838500000000     0.410850000000     0          
O        O      0.373300000000     0.946450000000     0.001700000000     0          
O        O      0.303550000000     0.748300000000     0.126700000000     0          
O        O      0.250000000000     0.697900000000     0.052100000000     0          
O        O      0.211900000000     0.711900000000     0.016550000000     0          
O        O      0.251700000000     0.678550000000     0.001700000000     0          
O        O      0.213500000000     0.661500000000     0.035850000000     0          
O        O      0.303550000000     0.626700000000     0.248300000000     0          
O        O      0.286500000000     0.588500000000     0.214150000000     0          
O        O      0.373300000000     0.928550000000     0.373300000000     0          
O        O      0.411500000000     0.911500000000     0.339150000000     0          
O        O      0.461900000000     0.663100000000     0.108450000000     0          
O        O      0.302100000000     0.947900000000     0.250000000000     0          
O        O      0.251700000000     0.928550000000     0.251700000000     0          
O        O      0.285850000000     0.911500000000     0.213500000000     0          
O        O      0.302100000000     0.927100000000     0.125000000000     0          
O        O      0.288100000000     0.891550000000     0.086900000000     0          
O        O      0.322900000000     0.927100000000     0.000000000000     0          
O        O      0.322900000000     0.947900000000     0.375000000000     0          
O        O      0.303550000000     0.998300000000     0.376700000000     0          
O        O      0.266550000000     0.913100000000     0.163100000000     0          
O        O      0.303550000000     0.876700000000     0.498300000000     0          
O        O      0.286500000000     0.910850000000     0.036500000000     0          
O        O      0.250000000000     0.552100000000     0.197900000000     0          
O        O      0.233450000000     0.836900000000     0.086900000000     0          
O        O      0.248300000000     0.876700000000     0.053550000000     0          
O        O      0.214150000000     0.838500000000     0.036500000000     0          
O        O      0.211900000000     0.858450000000     0.163100000000     0          
O        O      0.251700000000     0.873300000000     0.196450000000     0          
O        O      0.213500000000     0.839150000000     0.213500000000     0          
O        O      0.197900000000     0.500000000000     0.302100000000     0          
O        O      0.211900000000     0.961900000000     0.266550000000     0          
O        O      0.411500000000     0.661500000000     0.089150000000     0          
O        O      0.196450000000     0.751700000000     0.373300000000     0          
O        O      0.250000000000     0.802100000000     0.447900000000     0          
O        O      0.288100000000     0.788100000000     0.483450000000     0          
O        O      0.248300000000     0.821450000000     0.498300000000     0          
O        O      0.286500000000     0.838500000000     0.464150000000     0          
O        O      0.196450000000     0.873300000000     0.251700000000     0          
O        O      0.213500000000     0.911500000000     0.285850000000     0          
O        O      0.088500000000     0.588500000000     0.160850000000     0          
O        O      0.197900000000     0.802100000000     0.000000000000     0          
O        O      0.233450000000     0.788100000000     0.038100000000     0          
O        O      0.197900000000     0.822900000000     0.125000000000     0          
O        O      0.177100000000     0.822900000000     0.250000000000     0          
O        O      0.126700000000     0.803550000000     0.248300000000     0          
O        O      0.177100000000     0.802100000000     0.375000000000     0          
O        O      0.213500000000     0.785850000000     0.411500000000     0          
O        O      0.214150000000     0.786500000000     0.088500000000     0          
O        O      0.126700000000     0.821450000000     0.376700000000     0          
O        O      0.211900000000     0.766550000000     0.461900000000     0          
O        O      0.178550000000     0.751700000000     0.001700000000     0          
O        O      0.288100000000     0.733450000000     0.038100000000     0          
O        O      0.248300000000     0.748300000000     0.071450000000     0          
O        O      0.286500000000     0.714150000000     0.088500000000     0          
O        O      0.302100000000     0.750000000000     0.447900000000     0          
O        O      0.266550000000     0.711900000000     0.461900000000     0          
O        O      0.251700000000     0.751700000000     0.428550000000     0          
O        O      0.285850000000     0.713500000000     0.411500000000     0          
O        O      0.321450000000     0.748300000000     0.498300000000     0          
O        O      0.038100000000     0.586900000000     0.141550000000     0          
O        O      0.373300000000     0.696450000000     0.251700000000     0          
O        O      0.373300000000     0.678550000000     0.123300000000     0          
O        O      0.461900000000     0.913100000000     0.358450000000     0          
O        O      0.302100000000     0.697900000000     0.000000000000     0          
O        O      0.302100000000     0.677100000000     0.375000000000     0          
O        O      0.322900000000     0.677100000000     0.250000000000     0          
O        O      0.322900000000     0.697900000000     0.125000000000     0          
O        O      0.197900000000     0.750000000000     0.052100000000     0          
O        O      0.447900000000     0.552100000000     0.500000000000     0          
O        O      0.483450000000     0.538100000000     0.538100000000     0          
O        O      0.498300000000     0.571450000000     0.998300000000     0          
O        O      0.464150000000     0.588500000000     0.536500000000     0          
O        O      0.447900000000     0.572900000000     0.625000000000     0          
O        O      0.461900000000     0.608450000000     0.663100000000     0          
O        O      0.428550000000     0.623300000000     0.623300000000     0          
O        O      0.411500000000     0.589150000000     0.661500000000     0          
O        O      0.427100000000     0.572900000000     0.750000000000     0          
O        O      0.391550000000     0.586900000000     0.788100000000     0          
O        O      0.376700000000     0.553550000000     0.748300000000     0          
O        O      0.410850000000     0.536500000000     0.786500000000     0          
O        O      0.427100000000     0.552100000000     0.875000000000     0          
O        O      0.413100000000     0.516550000000     0.913100000000     0          
O        O      0.446450000000     0.501700000000     0.873300000000     0          
O        O      0.463500000000     0.535850000000     0.911500000000     0          
O        O      0.483450000000     0.586900000000     0.586900000000     0          
O        O      0.498300000000     0.553550000000     0.626700000000     0          
O        O      0.464150000000     0.536500000000     0.588500000000     0          
O        O      0.413100000000     0.608450000000     0.711900000000     0          
O        O      0.446450000000     0.623300000000     0.751700000000     0          
O        O      0.463500000000     0.589150000000     0.713500000000     0          
O        O      0.391550000000     0.538100000000     0.836900000000     0          
O        O      0.376700000000     0.571450000000     0.876700000000     0          
O        O      0.410850000000     0.588500000000     0.838500000000     0          
O        O      0.461900000000     0.516550000000     0.961900000000     0          
O        O      0.428550000000     0.501700000000     0.501700000000     0          
O        O      0.411500000000     0.535850000000     0.963500000000     0          
O        O      0.000000000000     0.947900000000     0.552100000000     0          
O        O      0.038100000000     0.983450000000     0.538100000000     0          
O        O      0.498300000000     0.998300000000     0.571450000000     0          
O        O      0.036500000000     0.964150000000     0.588500000000     0          
O        O      0.052100000000     0.625000000000     0.677100000000     0          
O        O      0.016550000000     0.663100000000     0.663100000000     0          
O        O      0.001700000000     0.623300000000     0.696450000000     0          
O        O      0.035850000000     0.661500000000     0.713500000000     0          
O        O      0.375000000000     0.677100000000     0.802100000000     0          
O        O      0.336900000000     0.641550000000     0.788100000000     0          
O        O      0.376700000000     0.626700000000     0.821450000000     0          
O        O      0.338500000000     0.660850000000     0.838500000000     0          
O        O      0.322900000000     0.500000000000     0.927100000000     0          
O        O      0.358450000000     0.961900000000     0.913100000000     0          
O        O      0.373300000000     0.501700000000     0.946450000000     0          
O        O      0.339150000000     0.963500000000     0.963500000000     0          
O        O      0.000000000000     0.677100000000     0.572900000000     0          
O        O      0.038100000000     0.641550000000     0.586900000000     0          
O        O      0.498300000000     0.626700000000     0.553550000000     0          
O        O      0.036500000000     0.660850000000     0.536500000000     0          
O        O      0.322900000000     0.625000000000     0.697900000000     0          
O        O      0.358450000000     0.663100000000     0.711900000000     0          
O        O      0.373300000000     0.623300000000     0.678550000000     0          
O        O      0.339150000000     0.661500000000     0.661500000000     0          
O        O      0.375000000000     0.947900000000     0.822900000000     0          
O        O      0.336900000000     0.983450000000     0.836900000000     0          
O        O      0.376700000000     0.998300000000     0.803550000000     0          
O        O      0.338500000000     0.964150000000     0.786500000000     0          
O        O      0.052100000000     0.500000000000     0.947900000000     0          
O        O      0.016550000000     0.961900000000     0.961900000000     0          
O        O      0.001700000000     0.501700000000     0.928550000000     0          
O        O      0.035850000000     0.963500000000     0.911500000000     0          
O        O      0.038100000000     0.538100000000     0.983450000000     0          
O        O      0.071450000000     0.998300000000     0.998300000000     0          
O        O      0.088500000000     0.536500000000     0.964150000000     0          
O        O      0.302100000000     0.875000000000     0.677100000000     0          
O        O      0.288100000000     0.836900000000     0.641550000000     0          
O        O      0.321450000000     0.876700000000     0.626700000000     0          
O        O      0.338500000000     0.838500000000     0.660850000000     0          
O        O      0.125000000000     0.927100000000     0.802100000000     0          
O        O      0.163100000000     0.913100000000     0.766550000000     0          
O        O      0.123300000000     0.946450000000     0.751700000000     0          
O        O      0.161500000000     0.963500000000     0.785850000000     0          
O        O      0.072900000000     0.750000000000     0.927100000000     0          
O        O      0.086900000000     0.788100000000     0.891550000000     0          
O        O      0.053550000000     0.748300000000     0.876700000000     0          
O        O      0.036500000000     0.786500000000     0.910850000000     0          
O        O      0.000000000000     0.697900000000     0.802100000000     0          
O        O      0.461900000000     0.711900000000     0.766550000000     0          
O        O      0.001700000000     0.678550000000     0.751700000000     0          
O        O      0.463500000000     0.661500000000     0.785850000000     0          
O        O      0.072900000000     0.625000000000     0.947900000000     0          
O        O      0.086900000000     0.586900000000     0.983450000000     0          
O        O      0.053550000000     0.626700000000     0.998300000000     0          
O        O      0.036500000000     0.588500000000     0.964150000000     0          
O        O      0.125000000000     0.947900000000     0.572900000000     0          
O        O      0.163100000000     0.961900000000     0.608450000000     0          
O        O      0.123300000000     0.928550000000     0.623300000000     0          
O        O      0.161500000000     0.911500000000     0.589150000000     0          
O        O      0.250000000000     0.677100000000     0.822900000000     0          
O        O      0.211900000000     0.663100000000     0.858450000000     0          
O        O      0.251700000000     0.696450000000     0.873300000000     0          
O        O      0.213500000000     0.713500000000     0.839150000000     0          
O        O      0.052100000000     0.947900000000     0.500000000000     0          
O        O      0.001700000000     0.928550000000     0.501700000000     0          
O        O      0.035850000000     0.911500000000     0.963500000000     0          
O        O      0.052100000000     0.927100000000     0.875000000000     0          
O        O      0.038100000000     0.891550000000     0.836900000000     0          
O        O      0.071450000000     0.876700000000     0.876700000000     0          
O        O      0.088500000000     0.910850000000     0.838500000000     0          
O        O      0.072900000000     0.927100000000     0.750000000000     0          
O        O      0.108450000000     0.913100000000     0.711900000000     0          
O        O      0.089150000000     0.963500000000     0.713500000000     0          
O        O      0.072900000000     0.947900000000     0.625000000000     0          
O        O      0.086900000000     0.983450000000     0.586900000000     0          
O        O      0.053550000000     0.998300000000     0.626700000000     0          
O        O      0.016550000000     0.913100000000     0.913100000000     0          
O        O      0.001700000000     0.946450000000     0.873300000000     0          
O        O      0.086900000000     0.891550000000     0.788100000000     0          
O        O      0.053550000000     0.876700000000     0.748300000000     0          
O        O      0.036500000000     0.910850000000     0.786500000000     0          
O        O      0.108450000000     0.961900000000     0.663100000000     0          
O        O      0.089150000000     0.911500000000     0.661500000000     0          
O        O      0.088500000000     0.964150000000     0.536500000000     0          
O        O      0.000000000000     0.552100000000     0.947900000000     0          
O        O      0.447900000000     0.875000000000     0.822900000000     0          
O        O      0.483450000000     0.836900000000     0.836900000000     0          
O        O      0.498300000000     0.876700000000     0.803550000000     0          
O        O      0.464150000000     0.838500000000     0.786500000000     0          
O        O      0.125000000000     0.822900000000     0.697900000000     0          
O        O      0.163100000000     0.858450000000     0.711900000000     0          
O        O      0.123300000000     0.873300000000     0.678550000000     0          
O        O      0.161500000000     0.839150000000     0.661500000000     0          
O        O      0.177100000000     0.500000000000     0.572900000000     0          
O        O      0.141550000000     0.538100000000     0.586900000000     0          
O        O      0.126700000000     0.998300000000     0.553550000000     0          
O        O      0.160850000000     0.536500000000     0.536500000000     0          
O        O      0.000000000000     0.822900000000     0.927100000000     0          
O        O      0.461900000000     0.858450000000     0.913100000000     0          
O        O      0.001700000000     0.873300000000     0.946450000000     0          
O        O      0.463500000000     0.839150000000     0.963500000000     0          
O        O      0.177100000000     0.875000000000     0.802100000000     0          
O        O      0.141550000000     0.836900000000     0.788100000000     0          
O        O      0.126700000000     0.876700000000     0.821450000000     0          
O        O      0.160850000000     0.838500000000     0.838500000000     0          
O        O      0.125000000000     0.552100000000     0.677100000000     0          
O        O      0.163100000000     0.516550000000     0.663100000000     0          
O        O      0.123300000000     0.501700000000     0.696450000000     0          
O        O      0.161500000000     0.535850000000     0.713500000000     0          
O        O      0.447900000000     0.500000000000     0.552100000000     0          
O        O      0.461900000000     0.961900000000     0.516550000000     0          
O        O      0.411500000000     0.963500000000     0.535850000000     0          
O        O      0.197900000000     0.625000000000     0.822900000000     0          
O        O      0.178550000000     0.623300000000     0.873300000000     0          
O        O      0.161500000000     0.661500000000     0.839150000000     0          
O        O      0.375000000000     0.572900000000     0.697900000000     0          
O        O      0.336900000000     0.586900000000     0.733450000000     0          
O        O      0.338500000000     0.536500000000     0.714150000000     0          
O        O      0.427100000000     0.750000000000     0.572900000000     0          
O        O      0.413100000000     0.711900000000     0.608450000000     0          
O        O      0.446450000000     0.751700000000     0.623300000000     0          
O        O      0.463500000000     0.713500000000     0.589150000000     0          
O        O      0.000000000000     0.802100000000     0.697900000000     0          
O        O      0.038100000000     0.788100000000     0.733450000000     0          
O        O      0.498300000000     0.821450000000     0.748300000000     0          
O        O      0.036500000000     0.838500000000     0.714150000000     0          
O        O      0.427100000000     0.875000000000     0.552100000000     0          
O        O      0.413100000000     0.913100000000     0.516550000000     0          
O        O      0.446450000000     0.873300000000     0.501700000000     0          
O        O      0.463500000000     0.911500000000     0.535850000000     0          
O        O      0.375000000000     0.552100000000     0.927100000000     0          
O        O      0.336900000000     0.538100000000     0.891550000000     0          
O        O      0.338500000000     0.588500000000     0.910850000000     0          
O        O      0.250000000000     0.822900000000     0.677100000000     0          
O        O      0.248300000000     0.803550000000     0.626700000000     0          
O        O      0.286500000000     0.786500000000     0.660850000000     0          
O        O      0.447900000000     0.802100000000     0.750000000000     0          
O        O      0.483450000000     0.788100000000     0.788100000000     0          
O        O      0.447900000000     0.822900000000     0.875000000000     0          
O        O      0.428550000000     0.873300000000     0.873300000000     0          
O        O      0.411500000000     0.839150000000     0.911500000000     0          
O        O      0.427100000000     0.822900000000     0.500000000000     0          
O        O      0.391550000000     0.836900000000     0.538100000000     0          
O        O      0.376700000000     0.803550000000     0.998300000000     0          
O        O      0.410850000000     0.786500000000     0.536500000000     0          
O        O      0.427100000000     0.802100000000     0.625000000000     0          
O        O      0.413100000000     0.766550000000     0.663100000000     0          
O        O      0.463500000000     0.785850000000     0.661500000000     0          
O        O      0.498300000000     0.803550000000     0.876700000000     0          
O        O      0.464150000000     0.786500000000     0.838500000000     0          
O        O      0.413100000000     0.858450000000     0.961900000000     0          
O        O      0.391550000000     0.788100000000     0.586900000000     0          
O        O      0.376700000000     0.821450000000     0.626700000000     0          
O        O      0.410850000000     0.838500000000     0.588500000000     0          
O        O      0.461900000000     0.766550000000     0.711900000000     0          
O        O      0.428550000000     0.751700000000     0.751700000000     0          
O        O      0.411500000000     0.785850000000     0.713500000000     0          
O        O      0.038100000000     0.733450000000     0.788100000000     0          
O        O      0.498300000000     0.748300000000     0.821450000000     0          
O        O      0.036500000000     0.714150000000     0.838500000000     0          
O        O      0.052100000000     0.875000000000     0.927100000000     0          
O        O      0.375000000000     0.927100000000     0.552100000000     0          
O        O      0.336900000000     0.891550000000     0.538100000000     0          
O        O      0.376700000000     0.876700000000     0.571450000000     0          
O        O      0.338500000000     0.910850000000     0.588500000000     0          
O        O      0.322900000000     0.750000000000     0.677100000000     0          
O        O      0.358450000000     0.711900000000     0.663100000000     0          
O        O      0.373300000000     0.751700000000     0.696450000000     0          
O        O      0.339150000000     0.713500000000     0.713500000000     0          
O        O      0.000000000000     0.927100000000     0.822900000000     0          
O        O      0.322900000000     0.875000000000     0.947900000000     0          
O        O      0.358450000000     0.913100000000     0.961900000000     0          
O        O      0.373300000000     0.873300000000     0.928550000000     0          
O        O      0.339150000000     0.911500000000     0.911500000000     0          
O        O      0.375000000000     0.697900000000     0.572900000000     0          
O        O      0.336900000000     0.733450000000     0.586900000000     0          
O        O      0.376700000000     0.748300000000     0.553550000000     0          
O        O      0.338500000000     0.714150000000     0.536500000000     0          
O        O      0.052100000000     0.750000000000     0.697900000000     0          
O        O      0.016550000000     0.711900000000     0.711900000000     0          
O        O      0.001700000000     0.751700000000     0.678550000000     0          
O        O      0.035850000000     0.713500000000     0.661500000000     0          
O        O      0.071450000000     0.748300000000     0.748300000000     0          
O        O      0.088500000000     0.786500000000     0.714150000000     0          
O        O      0.302100000000     0.625000000000     0.927100000000     0          
O        O      0.288100000000     0.586900000000     0.891550000000     0          
O        O      0.321450000000     0.626700000000     0.876700000000     0          
O        O      0.125000000000     0.677100000000     0.552100000000     0          
O        O      0.163100000000     0.663100000000     0.516550000000     0          
O        O      0.123300000000     0.696450000000     0.501700000000     0          
O        O      0.161500000000     0.713500000000     0.535850000000     0          
O        O      0.072900000000     0.500000000000     0.677100000000     0          
O        O      0.086900000000     0.538100000000     0.641550000000     0          
O        O      0.036500000000     0.536500000000     0.660850000000     0          
O        O      0.072900000000     0.875000000000     0.697900000000     0          
O        O      0.086900000000     0.836900000000     0.733450000000     0          
O        O      0.125000000000     0.697900000000     0.822900000000     0          
O        O      0.163100000000     0.711900000000     0.858450000000     0          
O        O      0.123300000000     0.678550000000     0.873300000000     0          
O        O      0.250000000000     0.927100000000     0.572900000000     0          
O        O      0.211900000000     0.913100000000     0.608450000000     0          
O        O      0.251700000000     0.946450000000     0.623300000000     0          
O        O      0.213500000000     0.963500000000     0.589150000000     0          
O        O      0.052100000000     0.697900000000     0.750000000000     0          
O        O      0.052100000000     0.677100000000     0.625000000000     0          
O        O      0.071450000000     0.626700000000     0.626700000000     0          
O        O      0.088500000000     0.660850000000     0.588500000000     0          
O        O      0.072900000000     0.677100000000     0.500000000000     0          
O        O      0.108450000000     0.663100000000     0.961900000000     0          
O        O      0.089150000000     0.713500000000     0.963500000000     0          
O        O      0.072900000000     0.697900000000     0.875000000000     0          
O        O      0.086900000000     0.733450000000     0.836900000000     0          
O        O      0.001700000000     0.696450000000     0.623300000000     0          
O        O      0.086900000000     0.641550000000     0.538100000000     0          
O        O      0.108450000000     0.711900000000     0.913100000000     0          
O        O      0.089150000000     0.661500000000     0.911500000000     0          
O        O      0.088500000000     0.714150000000     0.786500000000     0          
O        O      0.447900000000     0.625000000000     0.572900000000     0          
O        O      0.125000000000     0.572900000000     0.947900000000     0          
O        O      0.163100000000     0.608450000000     0.961900000000     0          
O        O      0.123300000000     0.623300000000     0.928550000000     0          
O        O      0.161500000000     0.589150000000     0.911500000000     0          
O        O      0.177100000000     0.750000000000     0.822900000000     0          
O        O      0.141550000000     0.788100000000     0.836900000000     0          
O        O      0.126700000000     0.748300000000     0.803550000000     0          
O        O      0.160850000000     0.786500000000     0.786500000000     0          
O        O      0.000000000000     0.572900000000     0.677100000000     0          
O        O      0.177100000000     0.625000000000     0.552100000000     0          
O        O      0.141550000000     0.586900000000     0.538100000000     0          
O        O      0.126700000000     0.626700000000     0.571450000000     0          
O        O      0.160850000000     0.588500000000     0.588500000000     0          
O        O      0.125000000000     0.802100000000     0.927100000000     0          
O        O      0.163100000000     0.766550000000     0.913100000000     0          
O        O      0.123300000000     0.751700000000     0.946450000000     0          
O        O      0.161500000000     0.785850000000     0.963500000000     0          
O        O      0.447900000000     0.750000000000     0.802100000000     0          
O        O      0.411500000000     0.713500000000     0.785850000000     0          
O        O      0.197900000000     0.875000000000     0.572900000000     0          
O        O      0.178550000000     0.873300000000     0.623300000000     0          
O        O      0.375000000000     0.822900000000     0.947900000000     0          
O        O      0.336900000000     0.836900000000     0.983450000000     0          
O        O      0.338500000000     0.786500000000     0.964150000000     0          
O        O      0.427100000000     0.500000000000     0.822900000000     0          
O        O      0.413100000000     0.961900000000     0.858450000000     0          
O        O      0.463500000000     0.963500000000     0.839150000000     0          
O        O      0.427100000000     0.625000000000     0.802100000000     0          
O        O      0.413100000000     0.663100000000     0.766550000000     0          
O        O      0.375000000000     0.802100000000     0.677100000000     0          
O        O      0.336900000000     0.788100000000     0.641550000000     0          
O        O      0.250000000000     0.572900000000     0.927100000000     0          
O        O      0.248300000000     0.553550000000     0.876700000000     0          
O        O      0.286500000000     0.536500000000     0.910850000000     0          
O        O      0.197900000000     0.552100000000     0.750000000000     0          
O        O      0.233450000000     0.538100000000     0.788100000000     0          
O        O      0.248300000000     0.571450000000     0.748300000000     0          
O        O      0.214150000000     0.588500000000     0.786500000000     0          
O        O      0.197900000000     0.572900000000     0.875000000000     0          
O        O      0.211900000000     0.608450000000     0.913100000000     0          
O        O      0.177100000000     0.572900000000     0.500000000000     0          
O        O      0.126700000000     0.553550000000     0.998300000000     0          
O        O      0.177100000000     0.552100000000     0.625000000000     0          
O        O      0.196450000000     0.501700000000     0.623300000000     0          
O        O      0.213500000000     0.535850000000     0.661500000000     0          
O        O      0.233450000000     0.586900000000     0.836900000000     0          
O        O      0.214150000000     0.536500000000     0.838500000000     0          
O        O      0.196450000000     0.623300000000     0.501700000000     0          
O        O      0.213500000000     0.589150000000     0.963500000000     0          
O        O      0.126700000000     0.571450000000     0.626700000000     0          
O        O      0.211900000000     0.516550000000     0.711900000000     0          
O        O      0.178550000000     0.501700000000     0.751700000000     0          
O        O      0.250000000000     0.947900000000     0.802100000000     0          
O        O      0.288100000000     0.983450000000     0.788100000000     0          
O        O      0.248300000000     0.998300000000     0.821450000000     0          
O        O      0.286500000000     0.964150000000     0.838500000000     0          
O        O      0.266550000000     0.663100000000     0.913100000000     0          
O        O      0.251700000000     0.623300000000     0.946450000000     0          
O        O      0.285850000000     0.661500000000     0.963500000000     0          
O        O      0.288100000000     0.641550000000     0.836900000000     0          
O        O      0.248300000000     0.626700000000     0.803550000000     0          
O        O      0.286500000000     0.660850000000     0.786500000000     0          
O        O      0.302100000000     0.500000000000     0.697900000000     0          
O        O      0.266550000000     0.961900000000     0.711900000000     0          
O        O      0.251700000000     0.501700000000     0.678550000000     0          
O        O      0.285850000000     0.963500000000     0.661500000000     0          
O        O      0.288100000000     0.538100000000     0.733450000000     0          
O        O      0.321450000000     0.998300000000     0.748300000000     0          
O        O      0.038100000000     0.836900000000     0.891550000000     0          
O        O      0.088500000000     0.838500000000     0.910850000000     0          
O        O      0.373300000000     0.946450000000     0.501700000000     0          
O        O      0.303550000000     0.748300000000     0.626700000000     0          
O        O      0.250000000000     0.697900000000     0.552100000000     0          
O        O      0.211900000000     0.711900000000     0.516550000000     0          
O        O      0.251700000000     0.678550000000     0.501700000000     0          
O        O      0.213500000000     0.661500000000     0.535850000000     0          
O        O      0.303550000000     0.626700000000     0.748300000000     0          
O        O      0.286500000000     0.588500000000     0.714150000000     0          
O        O      0.373300000000     0.928550000000     0.873300000000     0          
O        O      0.411500000000     0.911500000000     0.839150000000     0          
O        O      0.461900000000     0.663100000000     0.608450000000     0          
O        O      0.302100000000     0.947900000000     0.750000000000     0          
O        O      0.251700000000     0.928550000000     0.751700000000     0          
O        O      0.285850000000     0.911500000000     0.713500000000     0          
O        O      0.302100000000     0.927100000000     0.625000000000     0          
O        O      0.288100000000     0.891550000000     0.586900000000     0          
O        O      0.322900000000     0.927100000000     0.500000000000     0          
O        O      0.322900000000     0.947900000000     0.875000000000     0          
O        O      0.303550000000     0.998300000000     0.876700000000     0          
O        O      0.266550000000     0.913100000000     0.663100000000     0          
O        O      0.303550000000     0.876700000000     0.998300000000     0          
O        O      0.286500000000     0.910850000000     0.536500000000     0          
O        O      0.250000000000     0.552100000000     0.697900000000     0          
O        O      0.233450000000     0.836900000000     0.586900000000     0          
O        O      0.248300000000     0.876700000000     0.553550000000     0          
O        O      0.214150000000     0.838500000000     0.536500000000     0          
O        O      0.211900000000     0.858450000000     0.663100000000     0          
O        O      0.251700000000     0.873300000000     0.696450000000     0          
O        O      0.213500000000     0.839150000000     0.713500000000     0          
O        O      0.197900000000     0.500000000000     0.802100000000     0          
O        O      0.211900000000     0.961900000000     0.766550000000     0          
O        O      0.411500000000     0.661500000000     0.589150000000     0          
O        O      0.196450000000     0.751700000000     0.873300000000     0          
O        O      0.250000000000     0.802100000000     0.947900000000     0          
O        O      0.288100000000     0.788100000000     0.983450000000     0          
O        O      0.248300000000     0.821450000000     0.998300000000     0          
O        O      0.286500000000     0.838500000000     0.964150000000     0          
O        O      0.196450000000     0.873300000000     0.751700000000     0          
O        O      0.213500000000     0.911500000000     0.785850000000     0          
O        O      0.088500000000     0.588500000000     0.660850000000     0          
O        O      0.197900000000     0.802100000000     0.500000000000     0          
O        O      0.233450000000     0.788100000000     0.538100000000     0          
O        O      0.197900000000     0.822900000000     0.625000000000     0          
O        O      0.177100000000     0.822900000000     0.750000000000     0          
O        O      0.126700000000     0.803550000000     0.748300000000     0          
O        O      0.177100000000     0.802100000000     0.875000000000     0          
O        O      0.213500000000     0.785850000000     0.911500000000     0          
O        O      0.214150000000     0.786500000000     0.588500000000     0          
O        O      0.126700000000     0.821450000000     0.876700000000     0          
O        O      0.211900000000     0.766550000000     0.961900000000     0          
O        O      0.178550000000     0.751700000000     0.501700000000     0          
O        O      0.288100000000     0.733450000000     0.538100000000     0          
O        O      0.248300000000     0.748300000000     0.571450000000     0          
O        O      0.286500000000     0.714150000000     0.588500000000     0          
O        O      0.302100000000     0.750000000000     0.947900000000     0          
O        O      0.266550000000     0.711900000000     0.961900000000     0          
O        O      0.251700000000     0.751700000000     0.928550000000     0          
O        O      0.285850000000     0.713500000000     0.911500000000     0          
O        O      0.321450000000     0.748300000000     0.998300000000     0          
O        O      0.038100000000     0.586900000000     0.641550000000     0          
O        O      0.373300000000     0.696450000000     0.751700000000     0          
O        O      0.373300000000     0.678550000000     0.623300000000     0          
O        O      0.461900000000     0.913100000000     0.858450000000     0          
O        O      0.302100000000     0.697900000000     0.500000000000     0          
O        O      0.302100000000     0.677100000000     0.875000000000     0          
O        O      0.322900000000     0.677100000000     0.750000000000     0          
O        O      0.322900000000     0.697900000000     0.625000000000     0          
O        O      0.197900000000     0.750000000000     0.552100000000     0          
O        O      0.947900000000     0.052100000000     0.000000000000     0          
O        O      0.983450000000     0.038100000000     0.038100000000     0          
O        O      0.998300000000     0.071450000000     0.498300000000     0          
O        O      0.964150000000     0.088500000000     0.036500000000     0          
O        O      0.947900000000     0.072900000000     0.125000000000     0          
O        O      0.961900000000     0.108450000000     0.163100000000     0          
O        O      0.928550000000     0.123300000000     0.123300000000     0          
O        O      0.911500000000     0.089150000000     0.161500000000     0          
O        O      0.927100000000     0.072900000000     0.250000000000     0          
O        O      0.891550000000     0.086900000000     0.288100000000     0          
O        O      0.876700000000     0.053550000000     0.248300000000     0          
O        O      0.910850000000     0.036500000000     0.286500000000     0          
O        O      0.927100000000     0.052100000000     0.375000000000     0          
O        O      0.913100000000     0.016550000000     0.413100000000     0          
O        O      0.946450000000     0.001700000000     0.373300000000     0          
O        O      0.963500000000     0.035850000000     0.411500000000     0          
O        O      0.983450000000     0.086900000000     0.086900000000     0          
O        O      0.998300000000     0.053550000000     0.126700000000     0          
O        O      0.964150000000     0.036500000000     0.088500000000     0          
O        O      0.913100000000     0.108450000000     0.211900000000     0          
O        O      0.946450000000     0.123300000000     0.251700000000     0          
O        O      0.963500000000     0.089150000000     0.213500000000     0          
O        O      0.891550000000     0.038100000000     0.336900000000     0          
O        O      0.876700000000     0.071450000000     0.376700000000     0          
O        O      0.910850000000     0.088500000000     0.338500000000     0          
O        O      0.961900000000     0.016550000000     0.461900000000     0          
O        O      0.928550000000     0.001700000000     0.001700000000     0          
O        O      0.911500000000     0.035850000000     0.463500000000     0          
O        O      0.500000000000     0.447900000000     0.052100000000     0          
O        O      0.538100000000     0.483450000000     0.038100000000     0          
O        O      0.998300000000     0.498300000000     0.071450000000     0          
O        O      0.536500000000     0.464150000000     0.088500000000     0          
O        O      0.552100000000     0.125000000000     0.177100000000     0          
O        O      0.516550000000     0.163100000000     0.163100000000     0          
O        O      0.501700000000     0.123300000000     0.196450000000     0          
O        O      0.535850000000     0.161500000000     0.213500000000     0          
O        O      0.875000000000     0.177100000000     0.302100000000     0          
O        O      0.836900000000     0.141550000000     0.288100000000     0          
O        O      0.876700000000     0.126700000000     0.321450000000     0          
O        O      0.838500000000     0.160850000000     0.338500000000     0          
O        O      0.822900000000     0.000000000000     0.427100000000     0          
O        O      0.858450000000     0.461900000000     0.413100000000     0          
O        O      0.873300000000     0.001700000000     0.446450000000     0          
O        O      0.839150000000     0.463500000000     0.463500000000     0          
O        O      0.500000000000     0.177100000000     0.072900000000     0          
O        O      0.538100000000     0.141550000000     0.086900000000     0          
O        O      0.998300000000     0.126700000000     0.053550000000     0          
O        O      0.536500000000     0.160850000000     0.036500000000     0          
O        O      0.822900000000     0.125000000000     0.197900000000     0          
O        O      0.858450000000     0.163100000000     0.211900000000     0          
O        O      0.873300000000     0.123300000000     0.178550000000     0          
O        O      0.839150000000     0.161500000000     0.161500000000     0          
O        O      0.875000000000     0.447900000000     0.322900000000     0          
O        O      0.836900000000     0.483450000000     0.336900000000     0          
O        O      0.876700000000     0.498300000000     0.303550000000     0          
O        O      0.838500000000     0.464150000000     0.286500000000     0          
O        O      0.552100000000     0.000000000000     0.447900000000     0          
O        O      0.516550000000     0.461900000000     0.461900000000     0          
O        O      0.501700000000     0.001700000000     0.428550000000     0          
O        O      0.535850000000     0.463500000000     0.411500000000     0          
O        O      0.538100000000     0.038100000000     0.483450000000     0          
O        O      0.571450000000     0.498300000000     0.498300000000     0          
O        O      0.588500000000     0.036500000000     0.464150000000     0          
O        O      0.802100000000     0.375000000000     0.177100000000     0          
O        O      0.788100000000     0.336900000000     0.141550000000     0          
O        O      0.821450000000     0.376700000000     0.126700000000     0          
O        O      0.838500000000     0.338500000000     0.160850000000     0          
O        O      0.625000000000     0.427100000000     0.302100000000     0          
O        O      0.663100000000     0.413100000000     0.266550000000     0          
O        O      0.623300000000     0.446450000000     0.251700000000     0          
O        O      0.661500000000     0.463500000000     0.285850000000     0          
O        O      0.572900000000     0.250000000000     0.427100000000     0          
O        O      0.586900000000     0.288100000000     0.391550000000     0          
O        O      0.553550000000     0.248300000000     0.376700000000     0          
O        O      0.536500000000     0.286500000000     0.410850000000     0          
O        O      0.500000000000     0.197900000000     0.302100000000     0          
O        O      0.961900000000     0.211900000000     0.266550000000     0          
O        O      0.501700000000     0.178550000000     0.251700000000     0          
O        O      0.963500000000     0.161500000000     0.285850000000     0          
O        O      0.572900000000     0.125000000000     0.447900000000     0          
O        O      0.586900000000     0.086900000000     0.483450000000     0          
O        O      0.553550000000     0.126700000000     0.498300000000     0          
O        O      0.536500000000     0.088500000000     0.464150000000     0          
O        O      0.625000000000     0.447900000000     0.072900000000     0          
O        O      0.663100000000     0.461900000000     0.108450000000     0          
O        O      0.623300000000     0.428550000000     0.123300000000     0          
O        O      0.661500000000     0.411500000000     0.089150000000     0          
O        O      0.750000000000     0.177100000000     0.322900000000     0          
O        O      0.711900000000     0.163100000000     0.358450000000     0          
O        O      0.751700000000     0.196450000000     0.373300000000     0          
O        O      0.713500000000     0.213500000000     0.339150000000     0          
O        O      0.552100000000     0.447900000000     0.000000000000     0          
O        O      0.501700000000     0.428550000000     0.001700000000     0          
O        O      0.535850000000     0.411500000000     0.463500000000     0          
O        O      0.552100000000     0.427100000000     0.375000000000     0          
O        O      0.538100000000     0.391550000000     0.336900000000     0          
O        O      0.571450000000     0.376700000000     0.376700000000     0          
O        O      0.588500000000     0.410850000000     0.338500000000     0          
O        O      0.572900000000     0.427100000000     0.250000000000     0          
O        O      0.608450000000     0.413100000000     0.211900000000     0          
O        O      0.589150000000     0.463500000000     0.213500000000     0          
O        O      0.572900000000     0.447900000000     0.125000000000     0          
O        O      0.586900000000     0.483450000000     0.086900000000     0          
O        O      0.553550000000     0.498300000000     0.126700000000     0          
O        O      0.516550000000     0.413100000000     0.413100000000     0          
O        O      0.501700000000     0.446450000000     0.373300000000     0          
O        O      0.586900000000     0.391550000000     0.288100000000     0          
O        O      0.553550000000     0.376700000000     0.248300000000     0          
O        O      0.536500000000     0.410850000000     0.286500000000     0          
O        O      0.608450000000     0.461900000000     0.163100000000     0          
O        O      0.589150000000     0.411500000000     0.161500000000     0          
O        O      0.588500000000     0.464150000000     0.036500000000     0          
O        O      0.500000000000     0.052100000000     0.447900000000     0          
O        O      0.947900000000     0.375000000000     0.322900000000     0          
O        O      0.983450000000     0.336900000000     0.336900000000     0          
O        O      0.998300000000     0.376700000000     0.303550000000     0          
O        O      0.964150000000     0.338500000000     0.286500000000     0          
O        O      0.625000000000     0.322900000000     0.197900000000     0          
O        O      0.663100000000     0.358450000000     0.211900000000     0          
O        O      0.623300000000     0.373300000000     0.178550000000     0          
O        O      0.661500000000     0.339150000000     0.161500000000     0          
O        O      0.677100000000     0.000000000000     0.072900000000     0          
O        O      0.641550000000     0.038100000000     0.086900000000     0          
O        O      0.626700000000     0.498300000000     0.053550000000     0          
O        O      0.660850000000     0.036500000000     0.036500000000     0          
O        O      0.500000000000     0.322900000000     0.427100000000     0          
O        O      0.961900000000     0.358450000000     0.413100000000     0          
O        O      0.501700000000     0.373300000000     0.446450000000     0          
O        O      0.963500000000     0.339150000000     0.463500000000     0          
O        O      0.677100000000     0.375000000000     0.302100000000     0          
O        O      0.641550000000     0.336900000000     0.288100000000     0          
O        O      0.626700000000     0.376700000000     0.321450000000     0          
O        O      0.660850000000     0.338500000000     0.338500000000     0          
O        O      0.625000000000     0.052100000000     0.177100000000     0          
O        O      0.663100000000     0.016550000000     0.163100000000     0          
O        O      0.623300000000     0.001700000000     0.196450000000     0          
O        O      0.661500000000     0.035850000000     0.213500000000     0          
O        O      0.947900000000     0.000000000000     0.052100000000     0          
O        O      0.961900000000     0.461900000000     0.016550000000     0          
O        O      0.911500000000     0.463500000000     0.035850000000     0          
O        O      0.697900000000     0.125000000000     0.322900000000     0          
O        O      0.678550000000     0.123300000000     0.373300000000     0          
O        O      0.661500000000     0.161500000000     0.339150000000     0          
O        O      0.875000000000     0.072900000000     0.197900000000     0          
O        O      0.836900000000     0.086900000000     0.233450000000     0          
O        O      0.838500000000     0.036500000000     0.214150000000     0          
O        O      0.927100000000     0.250000000000     0.072900000000     0          
O        O      0.913100000000     0.211900000000     0.108450000000     0          
O        O      0.946450000000     0.251700000000     0.123300000000     0          
O        O      0.963500000000     0.213500000000     0.089150000000     0          
O        O      0.500000000000     0.302100000000     0.197900000000     0          
O        O      0.538100000000     0.288100000000     0.233450000000     0          
O        O      0.998300000000     0.321450000000     0.248300000000     0          
O        O      0.536500000000     0.338500000000     0.214150000000     0          
O        O      0.927100000000     0.375000000000     0.052100000000     0          
O        O      0.913100000000     0.413100000000     0.016550000000     0          
O        O      0.946450000000     0.373300000000     0.001700000000     0          
O        O      0.963500000000     0.411500000000     0.035850000000     0          
O        O      0.875000000000     0.052100000000     0.427100000000     0          
O        O      0.836900000000     0.038100000000     0.391550000000     0          
O        O      0.838500000000     0.088500000000     0.410850000000     0          
O        O      0.750000000000     0.322900000000     0.177100000000     0          
O        O      0.748300000000     0.303550000000     0.126700000000     0          
O        O      0.786500000000     0.286500000000     0.160850000000     0          
O        O      0.947900000000     0.302100000000     0.250000000000     0          
O        O      0.983450000000     0.288100000000     0.288100000000     0          
O        O      0.947900000000     0.322900000000     0.375000000000     0          
O        O      0.928550000000     0.373300000000     0.373300000000     0          
O        O      0.911500000000     0.339150000000     0.411500000000     0          
O        O      0.927100000000     0.322900000000     0.000000000000     0          
O        O      0.891550000000     0.336900000000     0.038100000000     0          
O        O      0.876700000000     0.303550000000     0.498300000000     0          
O        O      0.910850000000     0.286500000000     0.036500000000     0          
O        O      0.927100000000     0.302100000000     0.125000000000     0          
O        O      0.913100000000     0.266550000000     0.163100000000     0          
O        O      0.963500000000     0.285850000000     0.161500000000     0          
O        O      0.998300000000     0.303550000000     0.376700000000     0          
O        O      0.964150000000     0.286500000000     0.338500000000     0          
O        O      0.913100000000     0.358450000000     0.461900000000     0          
O        O      0.891550000000     0.288100000000     0.086900000000     0          
O        O      0.876700000000     0.321450000000     0.126700000000     0          
O        O      0.910850000000     0.338500000000     0.088500000000     0          
O        O      0.961900000000     0.266550000000     0.211900000000     0          
O        O      0.928550000000     0.251700000000     0.251700000000     0          
O        O      0.911500000000     0.285850000000     0.213500000000     0          
O        O      0.538100000000     0.233450000000     0.288100000000     0          
O        O      0.998300000000     0.248300000000     0.321450000000     0          
O        O      0.536500000000     0.214150000000     0.338500000000     0          
O        O      0.552100000000     0.375000000000     0.427100000000     0          
O        O      0.875000000000     0.427100000000     0.052100000000     0          
O        O      0.836900000000     0.391550000000     0.038100000000     0          
O        O      0.876700000000     0.376700000000     0.071450000000     0          
O        O      0.838500000000     0.410850000000     0.088500000000     0          
O        O      0.822900000000     0.250000000000     0.177100000000     0          
O        O      0.858450000000     0.211900000000     0.163100000000     0          
O        O      0.873300000000     0.251700000000     0.196450000000     0          
O        O      0.839150000000     0.213500000000     0.213500000000     0          
O        O      0.500000000000     0.427100000000     0.322900000000     0          
O        O      0.822900000000     0.375000000000     0.447900000000     0          
O        O      0.858450000000     0.413100000000     0.461900000000     0          
O        O      0.873300000000     0.373300000000     0.428550000000     0          
O        O      0.839150000000     0.411500000000     0.411500000000     0          
O        O      0.875000000000     0.197900000000     0.072900000000     0          
O        O      0.836900000000     0.233450000000     0.086900000000     0          
O        O      0.876700000000     0.248300000000     0.053550000000     0          
O        O      0.838500000000     0.214150000000     0.036500000000     0          
O        O      0.552100000000     0.250000000000     0.197900000000     0          
O        O      0.516550000000     0.211900000000     0.211900000000     0          
O        O      0.501700000000     0.251700000000     0.178550000000     0          
O        O      0.535850000000     0.213500000000     0.161500000000     0          
O        O      0.571450000000     0.248300000000     0.248300000000     0          
O        O      0.588500000000     0.286500000000     0.214150000000     0          
O        O      0.802100000000     0.125000000000     0.427100000000     0          
O        O      0.788100000000     0.086900000000     0.391550000000     0          
O        O      0.821450000000     0.126700000000     0.376700000000     0          
O        O      0.625000000000     0.177100000000     0.052100000000     0          
O        O      0.663100000000     0.163100000000     0.016550000000     0          
O        O      0.623300000000     0.196450000000     0.001700000000     0          
O        O      0.661500000000     0.213500000000     0.035850000000     0          
O        O      0.572900000000     0.000000000000     0.177100000000     0          
O        O      0.586900000000     0.038100000000     0.141550000000     0          
O        O      0.536500000000     0.036500000000     0.160850000000     0          
O        O      0.572900000000     0.375000000000     0.197900000000     0          
O        O      0.586900000000     0.336900000000     0.233450000000     0          
O        O      0.625000000000     0.197900000000     0.322900000000     0          
O        O      0.663100000000     0.211900000000     0.358450000000     0          
O        O      0.623300000000     0.178550000000     0.373300000000     0          
O        O      0.750000000000     0.427100000000     0.072900000000     0          
O        O      0.711900000000     0.413100000000     0.108450000000     0          
O        O      0.751700000000     0.446450000000     0.123300000000     0          
O        O      0.713500000000     0.463500000000     0.089150000000     0          
O        O      0.552100000000     0.197900000000     0.250000000000     0          
O        O      0.552100000000     0.177100000000     0.125000000000     0          
O        O      0.571450000000     0.126700000000     0.126700000000     0          
O        O      0.588500000000     0.160850000000     0.088500000000     0          
O        O      0.572900000000     0.177100000000     0.000000000000     0          
O        O      0.608450000000     0.163100000000     0.461900000000     0          
O        O      0.589150000000     0.213500000000     0.463500000000     0          
O        O      0.572900000000     0.197900000000     0.375000000000     0          
O        O      0.586900000000     0.233450000000     0.336900000000     0          
O        O      0.501700000000     0.196450000000     0.123300000000     0          
O        O      0.586900000000     0.141550000000     0.038100000000     0          
O        O      0.608450000000     0.211900000000     0.413100000000     0          
O        O      0.589150000000     0.161500000000     0.411500000000     0          
O        O      0.588500000000     0.214150000000     0.286500000000     0          
O        O      0.947900000000     0.125000000000     0.072900000000     0          
O        O      0.625000000000     0.072900000000     0.447900000000     0          
O        O      0.663100000000     0.108450000000     0.461900000000     0          
O        O      0.623300000000     0.123300000000     0.428550000000     0          
O        O      0.661500000000     0.089150000000     0.411500000000     0          
O        O      0.677100000000     0.250000000000     0.322900000000     0          
O        O      0.641550000000     0.288100000000     0.336900000000     0          
O        O      0.626700000000     0.248300000000     0.303550000000     0          
O        O      0.660850000000     0.286500000000     0.286500000000     0          
O        O      0.500000000000     0.072900000000     0.177100000000     0          
O        O      0.677100000000     0.125000000000     0.052100000000     0          
O        O      0.641550000000     0.086900000000     0.038100000000     0          
O        O      0.626700000000     0.126700000000     0.071450000000     0          
O        O      0.660850000000     0.088500000000     0.088500000000     0          
O        O      0.625000000000     0.302100000000     0.427100000000     0          
O        O      0.663100000000     0.266550000000     0.413100000000     0          
O        O      0.623300000000     0.251700000000     0.446450000000     0          
O        O      0.661500000000     0.285850000000     0.463500000000     0          
O        O      0.947900000000     0.250000000000     0.302100000000     0          
O        O      0.911500000000     0.213500000000     0.285850000000     0          
O        O      0.697900000000     0.375000000000     0.072900000000     0          
O        O      0.678550000000     0.373300000000     0.123300000000     0          
O        O      0.875000000000     0.322900000000     0.447900000000     0          
O        O      0.836900000000     0.336900000000     0.483450000000     0          
O        O      0.838500000000     0.286500000000     0.464150000000     0          
O        O      0.927100000000     0.000000000000     0.322900000000     0          
O        O      0.913100000000     0.461900000000     0.358450000000     0          
O        O      0.963500000000     0.463500000000     0.339150000000     0          
O        O      0.927100000000     0.125000000000     0.302100000000     0          
O        O      0.913100000000     0.163100000000     0.266550000000     0          
O        O      0.875000000000     0.302100000000     0.177100000000     0          
O        O      0.836900000000     0.288100000000     0.141550000000     0          
O        O      0.750000000000     0.072900000000     0.427100000000     0          
O        O      0.748300000000     0.053550000000     0.376700000000     0          
O        O      0.786500000000     0.036500000000     0.410850000000     0          
O        O      0.697900000000     0.052100000000     0.250000000000     0          
O        O      0.733450000000     0.038100000000     0.288100000000     0          
O        O      0.748300000000     0.071450000000     0.248300000000     0          
O        O      0.714150000000     0.088500000000     0.286500000000     0          
O        O      0.697900000000     0.072900000000     0.375000000000     0          
O        O      0.711900000000     0.108450000000     0.413100000000     0          
O        O      0.677100000000     0.072900000000     0.000000000000     0          
O        O      0.626700000000     0.053550000000     0.498300000000     0          
O        O      0.677100000000     0.052100000000     0.125000000000     0          
O        O      0.696450000000     0.001700000000     0.123300000000     0          
O        O      0.713500000000     0.035850000000     0.161500000000     0          
O        O      0.733450000000     0.086900000000     0.336900000000     0          
O        O      0.714150000000     0.036500000000     0.338500000000     0          
O        O      0.696450000000     0.123300000000     0.001700000000     0          
O        O      0.713500000000     0.089150000000     0.463500000000     0          
O        O      0.626700000000     0.071450000000     0.126700000000     0          
O        O      0.711900000000     0.016550000000     0.211900000000     0          
O        O      0.678550000000     0.001700000000     0.251700000000     0          
O        O      0.750000000000     0.447900000000     0.302100000000     0          
O        O      0.788100000000     0.483450000000     0.288100000000     0          
O        O      0.748300000000     0.498300000000     0.321450000000     0          
O        O      0.786500000000     0.464150000000     0.338500000000     0          
O        O      0.766550000000     0.163100000000     0.413100000000     0          
O        O      0.751700000000     0.123300000000     0.446450000000     0          
O        O      0.785850000000     0.161500000000     0.463500000000     0          
O        O      0.788100000000     0.141550000000     0.336900000000     0          
O        O      0.748300000000     0.126700000000     0.303550000000     0          
O        O      0.786500000000     0.160850000000     0.286500000000     0          
O        O      0.802100000000     0.000000000000     0.197900000000     0          
O        O      0.766550000000     0.461900000000     0.211900000000     0          
O        O      0.751700000000     0.001700000000     0.178550000000     0          
O        O      0.785850000000     0.463500000000     0.161500000000     0          
O        O      0.788100000000     0.038100000000     0.233450000000     0          
O        O      0.821450000000     0.498300000000     0.248300000000     0          
O        O      0.538100000000     0.336900000000     0.391550000000     0          
O        O      0.588500000000     0.338500000000     0.410850000000     0          
O        O      0.873300000000     0.446450000000     0.001700000000     0          
O        O      0.803550000000     0.248300000000     0.126700000000     0          
O        O      0.750000000000     0.197900000000     0.052100000000     0          
O        O      0.711900000000     0.211900000000     0.016550000000     0          
O        O      0.751700000000     0.178550000000     0.001700000000     0          
O        O      0.713500000000     0.161500000000     0.035850000000     0          
O        O      0.803550000000     0.126700000000     0.248300000000     0          
O        O      0.786500000000     0.088500000000     0.214150000000     0          
O        O      0.873300000000     0.428550000000     0.373300000000     0          
O        O      0.911500000000     0.411500000000     0.339150000000     0          
O        O      0.961900000000     0.163100000000     0.108450000000     0          
O        O      0.802100000000     0.447900000000     0.250000000000     0          
O        O      0.751700000000     0.428550000000     0.251700000000     0          
O        O      0.785850000000     0.411500000000     0.213500000000     0          
O        O      0.802100000000     0.427100000000     0.125000000000     0          
O        O      0.788100000000     0.391550000000     0.086900000000     0          
O        O      0.822900000000     0.427100000000     0.000000000000     0          
O        O      0.822900000000     0.447900000000     0.375000000000     0          
O        O      0.803550000000     0.498300000000     0.376700000000     0          
O        O      0.766550000000     0.413100000000     0.163100000000     0          
O        O      0.803550000000     0.376700000000     0.498300000000     0          
O        O      0.786500000000     0.410850000000     0.036500000000     0          
O        O      0.750000000000     0.052100000000     0.197900000000     0          
O        O      0.733450000000     0.336900000000     0.086900000000     0          
O        O      0.748300000000     0.376700000000     0.053550000000     0          
O        O      0.714150000000     0.338500000000     0.036500000000     0          
O        O      0.711900000000     0.358450000000     0.163100000000     0          
O        O      0.751700000000     0.373300000000     0.196450000000     0          
O        O      0.713500000000     0.339150000000     0.213500000000     0          
O        O      0.697900000000     0.000000000000     0.302100000000     0          
O        O      0.711900000000     0.461900000000     0.266550000000     0          
O        O      0.911500000000     0.161500000000     0.089150000000     0          
O        O      0.696450000000     0.251700000000     0.373300000000     0          
O        O      0.750000000000     0.302100000000     0.447900000000     0          
O        O      0.788100000000     0.288100000000     0.483450000000     0          
O        O      0.748300000000     0.321450000000     0.498300000000     0          
O        O      0.786500000000     0.338500000000     0.464150000000     0          
O        O      0.696450000000     0.373300000000     0.251700000000     0          
O        O      0.713500000000     0.411500000000     0.285850000000     0          
O        O      0.588500000000     0.088500000000     0.160850000000     0          
O        O      0.697900000000     0.302100000000     0.000000000000     0          
O        O      0.733450000000     0.288100000000     0.038100000000     0          
O        O      0.697900000000     0.322900000000     0.125000000000     0          
O        O      0.677100000000     0.322900000000     0.250000000000     0          
O        O      0.626700000000     0.303550000000     0.248300000000     0          
O        O      0.677100000000     0.302100000000     0.375000000000     0          
O        O      0.713500000000     0.285850000000     0.411500000000     0          
O        O      0.714150000000     0.286500000000     0.088500000000     0          
O        O      0.626700000000     0.321450000000     0.376700000000     0          
O        O      0.711900000000     0.266550000000     0.461900000000     0          
O        O      0.678550000000     0.251700000000     0.001700000000     0          
O        O      0.788100000000     0.233450000000     0.038100000000     0          
O        O      0.748300000000     0.248300000000     0.071450000000     0          
O        O      0.786500000000     0.214150000000     0.088500000000     0          
O        O      0.802100000000     0.250000000000     0.447900000000     0          
O        O      0.766550000000     0.211900000000     0.461900000000     0          
O        O      0.751700000000     0.251700000000     0.428550000000     0          
O        O      0.785850000000     0.213500000000     0.411500000000     0          
O        O      0.821450000000     0.248300000000     0.498300000000     0          
O        O      0.538100000000     0.086900000000     0.141550000000     0          
O        O      0.873300000000     0.196450000000     0.251700000000     0          
O        O      0.873300000000     0.178550000000     0.123300000000     0          
O        O      0.961900000000     0.413100000000     0.358450000000     0          
O        O      0.802100000000     0.197900000000     0.000000000000     0          
O        O      0.802100000000     0.177100000000     0.375000000000     0          
O        O      0.822900000000     0.177100000000     0.250000000000     0          
O        O      0.822900000000     0.197900000000     0.125000000000     0          
O        O      0.697900000000     0.250000000000     0.052100000000     0          
O        O      0.947900000000     0.052100000000     0.500000000000     0          
O        O      0.983450000000     0.038100000000     0.538100000000     0          
O        O      0.998300000000     0.071450000000     0.998300000000     0          
O        O      0.964150000000     0.088500000000     0.536500000000     0          
O        O      0.947900000000     0.072900000000     0.625000000000     0          
O        O      0.961900000000     0.108450000000     0.663100000000     0          
O        O      0.928550000000     0.123300000000     0.623300000000     0          
O        O      0.911500000000     0.089150000000     0.661500000000     0          
O        O      0.927100000000     0.072900000000     0.750000000000     0          
O        O      0.891550000000     0.086900000000     0.788100000000     0          
O        O      0.876700000000     0.053550000000     0.748300000000     0          
O        O      0.910850000000     0.036500000000     0.786500000000     0          
O        O      0.927100000000     0.052100000000     0.875000000000     0          
O        O      0.913100000000     0.016550000000     0.913100000000     0          
O        O      0.946450000000     0.001700000000     0.873300000000     0          
O        O      0.963500000000     0.035850000000     0.911500000000     0          
O        O      0.983450000000     0.086900000000     0.586900000000     0          
O        O      0.998300000000     0.053550000000     0.626700000000     0          
O        O      0.964150000000     0.036500000000     0.588500000000     0          
O        O      0.913100000000     0.108450000000     0.711900000000     0          
O        O      0.946450000000     0.123300000000     0.751700000000     0          
O        O      0.963500000000     0.089150000000     0.713500000000     0          
O        O      0.891550000000     0.038100000000     0.836900000000     0          
O        O      0.876700000000     0.071450000000     0.876700000000     0          
O        O      0.910850000000     0.088500000000     0.838500000000     0          
O        O      0.961900000000     0.016550000000     0.961900000000     0          
O        O      0.928550000000     0.001700000000     0.501700000000     0          
O        O      0.911500000000     0.035850000000     0.963500000000     0          
O        O      0.500000000000     0.447900000000     0.552100000000     0          
O        O      0.538100000000     0.483450000000     0.538100000000     0          
O        O      0.998300000000     0.498300000000     0.571450000000     0          
O        O      0.536500000000     0.464150000000     0.588500000000     0          
O        O      0.552100000000     0.125000000000     0.677100000000     0          
O        O      0.516550000000     0.163100000000     0.663100000000     0          
O        O      0.501700000000     0.123300000000     0.696450000000     0          
O        O      0.535850000000     0.161500000000     0.713500000000     0          
O        O      0.875000000000     0.177100000000     0.802100000000     0          
O        O      0.836900000000     0.141550000000     0.788100000000     0          
O        O      0.876700000000     0.126700000000     0.821450000000     0          
O        O      0.838500000000     0.160850000000     0.838500000000     0          
O        O      0.822900000000     0.000000000000     0.927100000000     0          
O        O      0.858450000000     0.461900000000     0.913100000000     0          
O        O      0.873300000000     0.001700000000     0.946450000000     0          
O        O      0.839150000000     0.463500000000     0.963500000000     0          
O        O      0.500000000000     0.177100000000     0.572900000000     0          
O        O      0.538100000000     0.141550000000     0.586900000000     0          
O        O      0.998300000000     0.126700000000     0.553550000000     0          
O        O      0.536500000000     0.160850000000     0.536500000000     0          
O        O      0.822900000000     0.125000000000     0.697900000000     0          
O        O      0.858450000000     0.163100000000     0.711900000000     0          
O        O      0.873300000000     0.123300000000     0.678550000000     0          
O        O      0.839150000000     0.161500000000     0.661500000000     0          
O        O      0.875000000000     0.447900000000     0.822900000000     0          
O        O      0.836900000000     0.483450000000     0.836900000000     0          
O        O      0.876700000000     0.498300000000     0.803550000000     0          
O        O      0.838500000000     0.464150000000     0.786500000000     0          
O        O      0.552100000000     0.000000000000     0.947900000000     0          
O        O      0.516550000000     0.461900000000     0.961900000000     0          
O        O      0.501700000000     0.001700000000     0.928550000000     0          
O        O      0.535850000000     0.463500000000     0.911500000000     0          
O        O      0.538100000000     0.038100000000     0.983450000000     0          
O        O      0.571450000000     0.498300000000     0.998300000000     0          
O        O      0.588500000000     0.036500000000     0.964150000000     0          
O        O      0.802100000000     0.375000000000     0.677100000000     0          
O        O      0.788100000000     0.336900000000     0.641550000000     0          
O        O      0.821450000000     0.376700000000     0.626700000000     0          
O        O      0.838500000000     0.338500000000     0.660850000000     0          
O        O      0.625000000000     0.427100000000     0.802100000000     0          
O        O      0.663100000000     0.413100000000     0.766550000000     0          
O        O      0.623300000000     0.446450000000     0.751700000000     0          
O        O      0.661500000000     0.463500000000     0.785850000000     0          
O        O      0.572900000000     0.250000000000     0.927100000000     0          
O        O      0.586900000000     0.288100000000     0.891550000000     0          
O        O      0.553550000000     0.248300000000     0.876700000000     0          
O        O      0.536500000000     0.286500000000     0.910850000000     0          
O        O      0.500000000000     0.197900000000     0.802100000000     0          
O        O      0.961900000000     0.211900000000     0.766550000000     0          
O        O      0.501700000000     0.178550000000     0.751700000000     0          
O        O      0.963500000000     0.161500000000     0.785850000000     0          
O        O      0.572900000000     0.125000000000     0.947900000000     0          
O        O      0.586900000000     0.086900000000     0.983450000000     0          
O        O      0.553550000000     0.126700000000     0.998300000000     0          
O        O      0.536500000000     0.088500000000     0.964150000000     0          
O        O      0.625000000000     0.447900000000     0.572900000000     0          
O        O      0.663100000000     0.461900000000     0.608450000000     0          
O        O      0.623300000000     0.428550000000     0.623300000000     0          
O        O      0.661500000000     0.411500000000     0.589150000000     0          
O        O      0.750000000000     0.177100000000     0.822900000000     0          
O        O      0.711900000000     0.163100000000     0.858450000000     0          
O        O      0.751700000000     0.196450000000     0.873300000000     0          
O        O      0.713500000000     0.213500000000     0.839150000000     0          
O        O      0.552100000000     0.447900000000     0.500000000000     0          
O        O      0.501700000000     0.428550000000     0.501700000000     0          
O        O      0.535850000000     0.411500000000     0.963500000000     0          
O        O      0.552100000000     0.427100000000     0.875000000000     0          
O        O      0.538100000000     0.391550000000     0.836900000000     0          
O        O      0.571450000000     0.376700000000     0.876700000000     0          
O        O      0.588500000000     0.410850000000     0.838500000000     0          
O        O      0.572900000000     0.427100000000     0.750000000000     0          
O        O      0.608450000000     0.413100000000     0.711900000000     0          
O        O      0.589150000000     0.463500000000     0.713500000000     0          
O        O      0.572900000000     0.447900000000     0.625000000000     0          
O        O      0.586900000000     0.483450000000     0.586900000000     0          
O        O      0.553550000000     0.498300000000     0.626700000000     0          
O        O      0.516550000000     0.413100000000     0.913100000000     0          
O        O      0.501700000000     0.446450000000     0.873300000000     0          
O        O      0.586900000000     0.391550000000     0.788100000000     0          
O        O      0.553550000000     0.376700000000     0.748300000000     0          
O        O      0.536500000000     0.410850000000     0.786500000000     0          
O        O      0.608450000000     0.461900000000     0.663100000000     0          
O        O      0.589150000000     0.411500000000     0.661500000000     0          
O        O      0.588500000000     0.464150000000     0.536500000000     0          
O        O      0.500000000000     0.052100000000     0.947900000000     0          
O        O      0.947900000000     0.375000000000     0.822900000000     0          
O        O      0.983450000000     0.336900000000     0.836900000000     0          
O        O      0.998300000000     0.376700000000     0.803550000000     0          
O        O      0.964150000000     0.338500000000     0.786500000000     0          
O        O      0.625000000000     0.322900000000     0.697900000000     0          
O        O      0.663100000000     0.358450000000     0.711900000000     0          
O        O      0.623300000000     0.373300000000     0.678550000000     0          
O        O      0.661500000000     0.339150000000     0.661500000000     0          
O        O      0.677100000000     0.000000000000     0.572900000000     0          
O        O      0.641550000000     0.038100000000     0.586900000000     0          
O        O      0.626700000000     0.498300000000     0.553550000000     0          
O        O      0.660850000000     0.036500000000     0.536500000000     0          
O        O      0.500000000000     0.322900000000     0.927100000000     0          
O        O      0.961900000000     0.358450000000     0.913100000000     0          
O        O      0.501700000000     0.373300000000     0.946450000000     0          
O        O      0.963500000000     0.339150000000     0.963500000000     0          
O        O      0.677100000000     0.375000000000     0.802100000000     0          
O        O      0.641550000000     0.336900000000     0.788100000000     0          
O        O      0.626700000000     0.376700000000     0.821450000000     0          
O        O      0.660850000000     0.338500000000     0.838500000000     0          
O        O      0.625000000000     0.052100000000     0.677100000000     0          
O        O      0.663100000000     0.016550000000     0.663100000000     0          
O        O      0.623300000000     0.001700000000     0.696450000000     0          
O        O      0.661500000000     0.035850000000     0.713500000000     0          
O        O      0.947900000000     0.000000000000     0.552100000000     0          
O        O      0.961900000000     0.461900000000     0.516550000000     0          
O        O      0.911500000000     0.463500000000     0.535850000000     0          
O        O      0.697900000000     0.125000000000     0.822900000000     0          
O        O      0.678550000000     0.123300000000     0.873300000000     0          
O        O      0.661500000000     0.161500000000     0.839150000000     0          
O        O      0.875000000000     0.072900000000     0.697900000000     0          
O        O      0.836900000000     0.086900000000     0.733450000000     0          
O        O      0.838500000000     0.036500000000     0.714150000000     0          
O        O      0.927100000000     0.250000000000     0.572900000000     0          
O        O      0.913100000000     0.211900000000     0.608450000000     0          
O        O      0.946450000000     0.251700000000     0.623300000000     0          
O        O      0.963500000000     0.213500000000     0.589150000000     0          
O        O      0.500000000000     0.302100000000     0.697900000000     0          
O        O      0.538100000000     0.288100000000     0.733450000000     0          
O        O      0.998300000000     0.321450000000     0.748300000000     0          
O        O      0.536500000000     0.338500000000     0.714150000000     0          
O        O      0.927100000000     0.375000000000     0.552100000000     0          
O        O      0.913100000000     0.413100000000     0.516550000000     0          
O        O      0.946450000000     0.373300000000     0.501700000000     0          
O        O      0.963500000000     0.411500000000     0.535850000000     0          
O        O      0.875000000000     0.052100000000     0.927100000000     0          
O        O      0.836900000000     0.038100000000     0.891550000000     0          
O        O      0.838500000000     0.088500000000     0.910850000000     0          
O        O      0.750000000000     0.322900000000     0.677100000000     0          
O        O      0.748300000000     0.303550000000     0.626700000000     0          
O        O      0.786500000000     0.286500000000     0.660850000000     0          
O        O      0.947900000000     0.302100000000     0.750000000000     0          
O        O      0.983450000000     0.288100000000     0.788100000000     0          
O        O      0.947900000000     0.322900000000     0.875000000000     0          
O        O      0.928550000000     0.373300000000     0.873300000000     0          
O        O      0.911500000000     0.339150000000     0.911500000000     0          
O        O      0.927100000000     0.322900000000     0.500000000000     0          
O        O      0.891550000000     0.336900000000     0.538100000000     0          
O        O      0.876700000000     0.303550000000     0.998300000000     0          
O        O      0.910850000000     0.286500000000     0.536500000000     0          
O        O      0.927100000000     0.302100000000     0.625000000000     0          
O        O      0.913100000000     0.266550000000     0.663100000000     0          
O        O      0.963500000000     0.285850000000     0.661500000000     0          
O        O      0.998300000000     0.303550000000     0.876700000000     0          
O        O      0.964150000000     0.286500000000     0.838500000000     0          
O        O      0.913100000000     0.358450000000     0.961900000000     0          
O        O      0.891550000000     0.288100000000     0.586900000000     0          
O        O      0.876700000000     0.321450000000     0.626700000000     0          
O        O      0.910850000000     0.338500000000     0.588500000000     0          
O        O      0.961900000000     0.266550000000     0.711900000000     0          
O        O      0.928550000000     0.251700000000     0.751700000000     0          
O        O      0.911500000000     0.285850000000     0.713500000000     0          
O        O      0.538100000000     0.233450000000     0.788100000000     0          
O        O      0.998300000000     0.248300000000     0.821450000000     0          
O        O      0.536500000000     0.214150000000     0.838500000000     0          
O        O      0.552100000000     0.375000000000     0.927100000000     0          
O        O      0.875000000000     0.427100000000     0.552100000000     0          
O        O      0.836900000000     0.391550000000     0.538100000000     0          
O        O      0.876700000000     0.376700000000     0.571450000000     0          
O        O      0.838500000000     0.410850000000     0.588500000000     0          
O        O      0.822900000000     0.250000000000     0.677100000000     0          
O        O      0.858450000000     0.211900000000     0.663100000000     0          
O        O      0.873300000000     0.251700000000     0.696450000000     0          
O        O      0.839150000000     0.213500000000     0.713500000000     0          
O        O      0.500000000000     0.427100000000     0.822900000000     0          
O        O      0.822900000000     0.375000000000     0.947900000000     0          
O        O      0.858450000000     0.413100000000     0.961900000000     0          
O        O      0.873300000000     0.373300000000     0.928550000000     0          
O        O      0.839150000000     0.411500000000     0.911500000000     0          
O        O      0.875000000000     0.197900000000     0.572900000000     0          
O        O      0.836900000000     0.233450000000     0.586900000000     0          
O        O      0.876700000000     0.248300000000     0.553550000000     0          
O        O      0.838500000000     0.214150000000     0.536500000000     0          
O        O      0.552100000000     0.250000000000     0.697900000000     0          
O        O      0.516550000000     0.211900000000     0.711900000000     0          
O        O      0.501700000000     0.251700000000     0.678550000000     0          
O        O      0.535850000000     0.213500000000     0.661500000000     0          
O        O      0.571450000000     0.248300000000     0.748300000000     0          
O        O      0.588500000000     0.286500000000     0.714150000000     0          
O        O      0.802100000000     0.125000000000     0.927100000000     0          
O        O      0.788100000000     0.086900000000     0.891550000000     0          
O        O      0.821450000000     0.126700000000     0.876700000000     0          
O        O      0.625000000000     0.177100000000     0.552100000000     0          
O        O      0.663100000000     0.163100000000     0.516550000000     0          
O        O      0.623300000000     0.196450000000     0.501700000000     0          
O        O      0.661500000000     0.213500000000     0.535850000000     0          
O        O      0.572900000000     0.000000000000     0.677100000000     0          
O        O      0.586900000000     0.038100000000     0.641550000000     0          
O        O      0.536500000000     0.036500000000     0.660850000000     0          
O        O      0.572900000000     0.375000000000     0.697900000000     0          
O        O      0.586900000000     0.336900000000     0.733450000000     0          
O        O      0.625000000000     0.197900000000     0.822900000000     0          
O        O      0.663100000000     0.211900000000     0.858450000000     0          
O        O      0.623300000000     0.178550000000     0.873300000000     0          
O        O      0.750000000000     0.427100000000     0.572900000000     0          
O        O      0.711900000000     0.413100000000     0.608450000000     0          
O        O      0.751700000000     0.446450000000     0.623300000000     0          
O        O      0.713500000000     0.463500000000     0.589150000000     0          
O        O      0.552100000000     0.197900000000     0.750000000000     0          
O        O      0.552100000000     0.177100000000     0.625000000000     0          
O        O      0.571450000000     0.126700000000     0.626700000000     0          
O        O      0.588500000000     0.160850000000     0.588500000000     0          
O        O      0.572900000000     0.177100000000     0.500000000000     0          
O        O      0.608450000000     0.163100000000     0.961900000000     0          
O        O      0.589150000000     0.213500000000     0.963500000000     0          
O        O      0.572900000000     0.197900000000     0.875000000000     0          
O        O      0.586900000000     0.233450000000     0.836900000000     0          
O        O      0.501700000000     0.196450000000     0.623300000000     0          
O        O      0.586900000000     0.141550000000     0.538100000000     0          
O        O      0.608450000000     0.211900000000     0.913100000000     0          
O        O      0.589150000000     0.161500000000     0.911500000000     0          
O        O      0.588500000000     0.214150000000     0.786500000000     0          
O        O      0.947900000000     0.125000000000     0.572900000000     0          
O        O      0.625000000000     0.072900000000     0.947900000000     0          
O        O      0.663100000000     0.108450000000     0.961900000000     0          
O        O      0.623300000000     0.123300000000     0.928550000000     0          
O        O      0.661500000000     0.089150000000     0.911500000000     0          
O        O      0.677100000000     0.250000000000     0.822900000000     0          
O        O      0.641550000000     0.288100000000     0.836900000000     0          
O        O      0.626700000000     0.248300000000     0.803550000000     0          
O        O      0.660850000000     0.286500000000     0.786500000000     0          
O        O      0.500000000000     0.072900000000     0.677100000000     0          
O        O      0.677100000000     0.125000000000     0.552100000000     0          
O        O      0.641550000000     0.086900000000     0.538100000000     0          
O        O      0.626700000000     0.126700000000     0.571450000000     0          
O        O      0.660850000000     0.088500000000     0.588500000000     0          
O        O      0.625000000000     0.302100000000     0.927100000000     0          
O        O      0.663100000000     0.266550000000     0.913100000000     0          
O        O      0.623300000000     0.251700000000     0.946450000000     0          
O        O      0.661500000000     0.285850000000     0.963500000000     0          
O        O      0.947900000000     0.250000000000     0.802100000000     0          
O        O      0.911500000000     0.213500000000     0.785850000000     0          
O        O      0.697900000000     0.375000000000     0.572900000000     0          
O        O      0.678550000000     0.373300000000     0.623300000000     0          
O        O      0.875000000000     0.322900000000     0.947900000000     0          
O        O      0.836900000000     0.336900000000     0.983450000000     0          
O        O      0.838500000000     0.286500000000     0.964150000000     0          
O        O      0.927100000000     0.000000000000     0.822900000000     0          
O        O      0.913100000000     0.461900000000     0.858450000000     0          
O        O      0.963500000000     0.463500000000     0.839150000000     0          
O        O      0.927100000000     0.125000000000     0.802100000000     0          
O        O      0.913100000000     0.163100000000     0.766550000000     0          
O        O      0.875000000000     0.302100000000     0.677100000000     0          
O        O      0.836900000000     0.288100000000     0.641550000000     0          
O        O      0.750000000000     0.072900000000     0.927100000000     0          
O        O      0.748300000000     0.053550000000     0.876700000000     0          
O        O      0.786500000000     0.036500000000     0.910850000000     0          
O        O      0.697900000000     0.052100000000     0.750000000000     0          
O        O      0.733450000000     0.038100000000     0.788100000000     0          
O        O      0.748300000000     0.071450000000     0.748300000000     0          
O        O      0.714150000000     0.088500000000     0.786500000000     0          
O        O      0.697900000000     0.072900000000     0.875000000000     0          
O        O      0.711900000000     0.108450000000     0.913100000000     0          
O        O      0.677100000000     0.072900000000     0.500000000000     0          
O        O      0.626700000000     0.053550000000     0.998300000000     0          
O        O      0.677100000000     0.052100000000     0.625000000000     0          
O        O      0.696450000000     0.001700000000     0.623300000000     0          
O        O      0.713500000000     0.035850000000     0.661500000000     0          
O        O      0.733450000000     0.086900000000     0.836900000000     0          
O        O      0.714150000000     0.036500000000     0.838500000000     0          
O        O      0.696450000000     0.123300000000     0.501700000000     0          
O        O      0.713500000000     0.089150000000     0.963500000000     0          
O        O      0.626700000000     0.071450000000     0.626700000000     0          
O        O      0.711900000000     0.016550000000     0.711900000000     0          
O        O      0.678550000000     0.001700000000     0.751700000000     0          
O        O      0.750000000000     0.447900000000     0.802100000000     0          
O        O      0.788100000000     0.483450000000     0.788100000000     0          
O        O      0.748300000000     0.498300000000     0.821450000000     0          
O        O      0.786500000000     0.464150000000     0.838500000000     0          
O        O      0.766550000000     0.163100000000     0.913100000000     0          
O        O      0.751700000000     0.123300000000     0.946450000000     0          
O        O      0.785850000000     0.161500000000     0.963500000000     0          
O        O      0.788100000000     0.141550000000     0.836900000000     0          
O        O      0.748300000000     0.126700000000     0.803550000000     0          
O        O      0.786500000000     0.160850000000     0.786500000000     0          
O        O      0.802100000000     0.000000000000     0.697900000000     0          
O        O      0.766550000000     0.461900000000     0.711900000000     0          
O        O      0.751700000000     0.001700000000     0.678550000000     0          
O        O      0.785850000000     0.463500000000     0.661500000000     0          
O        O      0.788100000000     0.038100000000     0.733450000000     0          
O        O      0.821450000000     0.498300000000     0.748300000000     0          
O        O      0.538100000000     0.336900000000     0.891550000000     0          
O        O      0.588500000000     0.338500000000     0.910850000000     0          
O        O      0.873300000000     0.446450000000     0.501700000000     0          
O        O      0.803550000000     0.248300000000     0.626700000000     0          
O        O      0.750000000000     0.197900000000     0.552100000000     0          
O        O      0.711900000000     0.211900000000     0.516550000000     0          
O        O      0.751700000000     0.178550000000     0.501700000000     0          
O        O      0.713500000000     0.161500000000     0.535850000000     0          
O        O      0.803550000000     0.126700000000     0.748300000000     0          
O        O      0.786500000000     0.088500000000     0.714150000000     0          
O        O      0.873300000000     0.428550000000     0.873300000000     0          
O        O      0.911500000000     0.411500000000     0.839150000000     0          
O        O      0.961900000000     0.163100000000     0.608450000000     0          
O        O      0.802100000000     0.447900000000     0.750000000000     0          
O        O      0.751700000000     0.428550000000     0.751700000000     0          
O        O      0.785850000000     0.411500000000     0.713500000000     0          
O        O      0.802100000000     0.427100000000     0.625000000000     0          
O        O      0.788100000000     0.391550000000     0.586900000000     0          
O        O      0.822900000000     0.427100000000     0.500000000000     0          
O        O      0.822900000000     0.447900000000     0.875000000000     0          
O        O      0.803550000000     0.498300000000     0.876700000000     0          
O        O      0.766550000000     0.413100000000     0.663100000000     0          
O        O      0.803550000000     0.376700000000     0.998300000000     0          
O        O      0.786500000000     0.410850000000     0.536500000000     0          
O        O      0.750000000000     0.052100000000     0.697900000000     0          
O        O      0.733450000000     0.336900000000     0.586900000000     0          
O        O      0.748300000000     0.376700000000     0.553550000000     0          
O        O      0.714150000000     0.338500000000     0.536500000000     0          
O        O      0.711900000000     0.358450000000     0.663100000000     0          
O        O      0.751700000000     0.373300000000     0.696450000000     0          
O        O      0.713500000000     0.339150000000     0.713500000000     0          
O        O      0.697900000000     0.000000000000     0.802100000000     0          
O        O      0.711900000000     0.461900000000     0.766550000000     0          
O        O      0.911500000000     0.161500000000     0.589150000000     0          
O        O      0.696450000000     0.251700000000     0.873300000000     0          
O        O      0.750000000000     0.302100000000     0.947900000000     0          
O        O      0.788100000000     0.288100000000     0.983450000000     0          
O        O      0.748300000000     0.321450000000     0.998300000000     0          
O        O      0.786500000000     0.338500000000     0.964150000000     0          
O        O      0.696450000000     0.373300000000     0.751700000000     0          
O        O      0.713500000000     0.411500000000     0.785850000000     0          
O        O      0.588500000000     0.088500000000     0.660850000000     0          
O        O      0.697900000000     0.302100000000     0.500000000000     0          
O        O      0.733450000000     0.288100000000     0.538100000000     0          
O        O      0.697900000000     0.322900000000     0.625000000000     0          
O        O      0.677100000000     0.322900000000     0.750000000000     0          
O        O      0.626700000000     0.303550000000     0.748300000000     0          
O        O      0.677100000000     0.302100000000     0.875000000000     0          
O        O      0.713500000000     0.285850000000     0.911500000000     0          
O        O      0.714150000000     0.286500000000     0.588500000000     0          
O        O      0.626700000000     0.321450000000     0.876700000000     0          
O        O      0.711900000000     0.266550000000     0.961900000000     0          
O        O      0.678550000000     0.251700000000     0.501700000000     0          
O        O      0.788100000000     0.233450000000     0.538100000000     0          
O        O      0.748300000000     0.248300000000     0.571450000000     0          
O        O      0.786500000000     0.214150000000     0.588500000000     0          
O        O      0.802100000000     0.250000000000     0.947900000000     0          
O        O      0.766550000000     0.211900000000     0.961900000000     0          
O        O      0.751700000000     0.251700000000     0.928550000000     0          
O        O      0.785850000000     0.213500000000     0.911500000000     0          
O        O      0.821450000000     0.248300000000     0.998300000000     0          
O        O      0.538100000000     0.086900000000     0.641550000000     0          
O        O      0.873300000000     0.196450000000     0.751700000000     0          
O        O      0.873300000000     0.178550000000     0.623300000000     0          
O        O      0.961900000000     0.413100000000     0.858450000000     0          
O        O      0.802100000000     0.197900000000     0.500000000000     0          
O        O      0.802100000000     0.177100000000     0.875000000000     0          
O        O      0.822900000000     0.177100000000     0.750000000000     0          
O        O      0.822900000000     0.197900000000     0.625000000000     0          
O        O      0.697900000000     0.250000000000     0.552100000000     0          
O        O      0.947900000000     0.552100000000     0.000000000000     0          
O        O      0.983450000000     0.538100000000     0.038100000000     0          
O        O      0.998300000000     0.571450000000     0.498300000000     0          
O        O      0.964150000000     0.588500000000     0.036500000000     0          
O        O      0.947900000000     0.572900000000     0.125000000000     0          
O        O      0.961900000000     0.608450000000     0.163100000000     0          
O        O      0.928550000000     0.623300000000     0.123300000000     0          
O        O      0.911500000000     0.589150000000     0.161500000000     0          
O        O      0.927100000000     0.572900000000     0.250000000000     0          
O        O      0.891550000000     0.586900000000     0.288100000000     0          
O        O      0.876700000000     0.553550000000     0.248300000000     0          
O        O      0.910850000000     0.536500000000     0.286500000000     0          
O        O      0.927100000000     0.552100000000     0.375000000000     0          
O        O      0.913100000000     0.516550000000     0.413100000000     0          
O        O      0.946450000000     0.501700000000     0.373300000000     0          
O        O      0.963500000000     0.535850000000     0.411500000000     0          
O        O      0.983450000000     0.586900000000     0.086900000000     0          
O        O      0.998300000000     0.553550000000     0.126700000000     0          
O        O      0.964150000000     0.536500000000     0.088500000000     0          
O        O      0.913100000000     0.608450000000     0.211900000000     0          
O        O      0.946450000000     0.623300000000     0.251700000000     0          
O        O      0.963500000000     0.589150000000     0.213500000000     0          
O        O      0.891550000000     0.538100000000     0.336900000000     0          
O        O      0.876700000000     0.571450000000     0.376700000000     0          
O        O      0.910850000000     0.588500000000     0.338500000000     0          
O        O      0.961900000000     0.516550000000     0.461900000000     0          
O        O      0.928550000000     0.501700000000     0.001700000000     0          
O        O      0.911500000000     0.535850000000     0.463500000000     0          
O        O      0.500000000000     0.947900000000     0.052100000000     0          
O        O      0.538100000000     0.983450000000     0.038100000000     0          
O        O      0.998300000000     0.998300000000     0.071450000000     0          
O        O      0.536500000000     0.964150000000     0.088500000000     0          
O        O      0.552100000000     0.625000000000     0.177100000000     0          
O        O      0.516550000000     0.663100000000     0.163100000000     0          
O        O      0.501700000000     0.623300000000     0.196450000000     0          
O        O      0.535850000000     0.661500000000     0.213500000000     0          
O        O      0.875000000000     0.677100000000     0.302100000000     0          
O        O      0.836900000000     0.641550000000     0.288100000000     0          
O        O      0.876700000000     0.626700000000     0.321450000000     0          
O        O      0.838500000000     0.660850000000     0.338500000000     0          
O        O      0.822900000000     0.500000000000     0.427100000000     0          
O        O      0.858450000000     0.961900000000     0.413100000000     0          
O        O      0.873300000000     0.501700000000     0.446450000000     0          
O        O      0.839150000000     0.963500000000     0.463500000000     0          
O        O      0.500000000000     0.677100000000     0.072900000000     0          
O        O      0.538100000000     0.641550000000     0.086900000000     0          
O        O      0.998300000000     0.626700000000     0.053550000000     0          
O        O      0.536500000000     0.660850000000     0.036500000000     0          
O        O      0.822900000000     0.625000000000     0.197900000000     0          
O        O      0.858450000000     0.663100000000     0.211900000000     0          
O        O      0.873300000000     0.623300000000     0.178550000000     0          
O        O      0.839150000000     0.661500000000     0.161500000000     0          
O        O      0.875000000000     0.947900000000     0.322900000000     0          
O        O      0.836900000000     0.983450000000     0.336900000000     0          
O        O      0.876700000000     0.998300000000     0.303550000000     0          
O        O      0.838500000000     0.964150000000     0.286500000000     0          
O        O      0.552100000000     0.500000000000     0.447900000000     0          
O        O      0.516550000000     0.961900000000     0.461900000000     0          
O        O      0.501700000000     0.501700000000     0.428550000000     0          
O        O      0.535850000000     0.963500000000     0.411500000000     0          
O        O      0.538100000000     0.538100000000     0.483450000000     0          
O        O      0.571450000000     0.998300000000     0.498300000000     0          
O        O      0.588500000000     0.536500000000     0.464150000000     0          
O        O      0.802100000000     0.875000000000     0.177100000000     0          
O        O      0.788100000000     0.836900000000     0.141550000000     0          
O        O      0.821450000000     0.876700000000     0.126700000000     0          
O        O      0.838500000000     0.838500000000     0.160850000000     0          
O        O      0.625000000000     0.927100000000     0.302100000000     0          
O        O      0.663100000000     0.913100000000     0.266550000000     0          
O        O      0.623300000000     0.946450000000     0.251700000000     0          
O        O      0.661500000000     0.963500000000     0.285850000000     0          
O        O      0.572900000000     0.750000000000     0.427100000000     0          
O        O      0.586900000000     0.788100000000     0.391550000000     0          
O        O      0.553550000000     0.748300000000     0.376700000000     0          
O        O      0.536500000000     0.786500000000     0.410850000000     0          
O        O      0.500000000000     0.697900000000     0.302100000000     0          
O        O      0.961900000000     0.711900000000     0.266550000000     0          
O        O      0.501700000000     0.678550000000     0.251700000000     0          
O        O      0.963500000000     0.661500000000     0.285850000000     0          
O        O      0.572900000000     0.625000000000     0.447900000000     0          
O        O      0.586900000000     0.586900000000     0.483450000000     0          
O        O      0.553550000000     0.626700000000     0.498300000000     0          
O        O      0.536500000000     0.588500000000     0.464150000000     0          
O        O      0.625000000000     0.947900000000     0.072900000000     0          
O        O      0.663100000000     0.961900000000     0.108450000000     0          
O        O      0.623300000000     0.928550000000     0.123300000000     0          
O        O      0.661500000000     0.911500000000     0.089150000000     0          
O        O      0.750000000000     0.677100000000     0.322900000000     0          
O        O      0.711900000000     0.663100000000     0.358450000000     0          
O        O      0.751700000000     0.696450000000     0.373300000000     0          
O        O      0.713500000000     0.713500000000     0.339150000000     0          
O        O      0.552100000000     0.947900000000     0.000000000000     0          
O        O      0.501700000000     0.928550000000     0.001700000000     0          
O        O      0.535850000000     0.911500000000     0.463500000000     0          
O        O      0.552100000000     0.927100000000     0.375000000000     0          
O        O      0.538100000000     0.891550000000     0.336900000000     0          
O        O      0.571450000000     0.876700000000     0.376700000000     0          
O        O      0.588500000000     0.910850000000     0.338500000000     0          
O        O      0.572900000000     0.927100000000     0.250000000000     0          
O        O      0.608450000000     0.913100000000     0.211900000000     0          
O        O      0.589150000000     0.963500000000     0.213500000000     0          
O        O      0.572900000000     0.947900000000     0.125000000000     0          
O        O      0.586900000000     0.983450000000     0.086900000000     0          
O        O      0.553550000000     0.998300000000     0.126700000000     0          
O        O      0.516550000000     0.913100000000     0.413100000000     0          
O        O      0.501700000000     0.946450000000     0.373300000000     0          
O        O      0.586900000000     0.891550000000     0.288100000000     0          
O        O      0.553550000000     0.876700000000     0.248300000000     0          
O        O      0.536500000000     0.910850000000     0.286500000000     0          
O        O      0.608450000000     0.961900000000     0.163100000000     0          
O        O      0.589150000000     0.911500000000     0.161500000000     0          
O        O      0.588500000000     0.964150000000     0.036500000000     0          
O        O      0.500000000000     0.552100000000     0.447900000000     0          
O        O      0.947900000000     0.875000000000     0.322900000000     0          
O        O      0.983450000000     0.836900000000     0.336900000000     0          
O        O      0.998300000000     0.876700000000     0.303550000000     0          
O        O      0.964150000000     0.838500000000     0.286500000000     0          
O        O      0.625000000000     0.822900000000     0.197900000000     0          
O        O      0.663100000000     0.858450000000     0.211900000000     0          
O        O      0.623300000000     0.873300000000     0.178550000000     0          
O        O      0.661500000000     0.839150000000     0.161500000000     0          
O        O      0.677100000000     0.500000000000     0.072900000000     0          
O        O      0.641550000000     0.538100000000     0.086900000000     0          
O        O      0.626700000000     0.998300000000     0.053550000000     0          
O        O      0.660850000000     0.536500000000     0.036500000000     0          
O        O      0.500000000000     0.822900000000     0.427100000000     0          
O        O      0.961900000000     0.858450000000     0.413100000000     0          
O        O      0.501700000000     0.873300000000     0.446450000000     0          
O        O      0.963500000000     0.839150000000     0.463500000000     0          
O        O      0.677100000000     0.875000000000     0.302100000000     0          
O        O      0.641550000000     0.836900000000     0.288100000000     0          
O        O      0.626700000000     0.876700000000     0.321450000000     0          
O        O      0.660850000000     0.838500000000     0.338500000000     0          
O        O      0.625000000000     0.552100000000     0.177100000000     0          
O        O      0.663100000000     0.516550000000     0.163100000000     0          
O        O      0.623300000000     0.501700000000     0.196450000000     0          
O        O      0.661500000000     0.535850000000     0.213500000000     0          
O        O      0.947900000000     0.500000000000     0.052100000000     0          
O        O      0.961900000000     0.961900000000     0.016550000000     0          
O        O      0.911500000000     0.963500000000     0.035850000000     0          
O        O      0.697900000000     0.625000000000     0.322900000000     0          
O        O      0.678550000000     0.623300000000     0.373300000000     0          
O        O      0.661500000000     0.661500000000     0.339150000000     0          
O        O      0.875000000000     0.572900000000     0.197900000000     0          
O        O      0.836900000000     0.586900000000     0.233450000000     0          
O        O      0.838500000000     0.536500000000     0.214150000000     0          
O        O      0.927100000000     0.750000000000     0.072900000000     0          
O        O      0.913100000000     0.711900000000     0.108450000000     0          
O        O      0.946450000000     0.751700000000     0.123300000000     0          
O        O      0.963500000000     0.713500000000     0.089150000000     0          
O        O      0.500000000000     0.802100000000     0.197900000000     0          
O        O      0.538100000000     0.788100000000     0.233450000000     0          
O        O      0.998300000000     0.821450000000     0.248300000000     0          
O        O      0.536500000000     0.838500000000     0.214150000000     0          
O        O      0.927100000000     0.875000000000     0.052100000000     0          
O        O      0.913100000000     0.913100000000     0.016550000000     0          
O        O      0.946450000000     0.873300000000     0.001700000000     0          
O        O      0.963500000000     0.911500000000     0.035850000000     0          
O        O      0.875000000000     0.552100000000     0.427100000000     0          
O        O      0.836900000000     0.538100000000     0.391550000000     0          
O        O      0.838500000000     0.588500000000     0.410850000000     0          
O        O      0.750000000000     0.822900000000     0.177100000000     0          
O        O      0.748300000000     0.803550000000     0.126700000000     0          
O        O      0.786500000000     0.786500000000     0.160850000000     0          
O        O      0.947900000000     0.802100000000     0.250000000000     0          
O        O      0.983450000000     0.788100000000     0.288100000000     0          
O        O      0.947900000000     0.822900000000     0.375000000000     0          
O        O      0.928550000000     0.873300000000     0.373300000000     0          
O        O      0.911500000000     0.839150000000     0.411500000000     0          
O        O      0.927100000000     0.822900000000     0.000000000000     0          
O        O      0.891550000000     0.836900000000     0.038100000000     0          
O        O      0.876700000000     0.803550000000     0.498300000000     0          
O        O      0.910850000000     0.786500000000     0.036500000000     0          
O        O      0.927100000000     0.802100000000     0.125000000000     0          
O        O      0.913100000000     0.766550000000     0.163100000000     0          
O        O      0.963500000000     0.785850000000     0.161500000000     0          
O        O      0.998300000000     0.803550000000     0.376700000000     0          
O        O      0.964150000000     0.786500000000     0.338500000000     0          
O        O      0.913100000000     0.858450000000     0.461900000000     0          
O        O      0.891550000000     0.788100000000     0.086900000000     0          
O        O      0.876700000000     0.821450000000     0.126700000000     0          
O        O      0.910850000000     0.838500000000     0.088500000000     0          
O        O      0.961900000000     0.766550000000     0.211900000000     0          
O        O      0.928550000000     0.751700000000     0.251700000000     0          
O        O      0.911500000000     0.785850000000     0.213500000000     0          
O        O      0.538100000000     0.733450000000     0.288100000000     0          
O        O      0.998300000000     0.748300000000     0.321450000000     0          
O        O      0.536500000000     0.714150000000     0.338500000000     0          
O        O      0.552100000000     0.875000000000     0.427100000000     0          
O        O      0.875000000000     0.927100000000     0.052100000000     0          
O        O      0.836900000000     0.891550000000     0.038100000000     0          
O        O      0.876700000000     0.876700000000     0.071450000000     0          
O        O      0.838500000000     0.910850000000     0.088500000000     0          
O        O      0.822900000000     0.750000000000     0.177100000000     0          
O        O      0.858450000000     0.711900000000     0.163100000000     0          
O        O      0.873300000000     0.751700000000     0.196450000000     0          
O        O      0.839150000000     0.713500000000     0.213500000000     0          
O        O      0.500000000000     0.927100000000     0.322900000000     0          
O        O      0.822900000000     0.875000000000     0.447900000000     0          
O        O      0.858450000000     0.913100000000     0.461900000000     0          
O        O      0.873300000000     0.873300000000     0.428550000000     0          
O        O      0.839150000000     0.911500000000     0.411500000000     0          
O        O      0.875000000000     0.697900000000     0.072900000000     0          
O        O      0.836900000000     0.733450000000     0.086900000000     0          
O        O      0.876700000000     0.748300000000     0.053550000000     0          
O        O      0.838500000000     0.714150000000     0.036500000000     0          
O        O      0.552100000000     0.750000000000     0.197900000000     0          
O        O      0.516550000000     0.711900000000     0.211900000000     0          
O        O      0.501700000000     0.751700000000     0.178550000000     0          
O        O      0.535850000000     0.713500000000     0.161500000000     0          
O        O      0.571450000000     0.748300000000     0.248300000000     0          
O        O      0.588500000000     0.786500000000     0.214150000000     0          
O        O      0.802100000000     0.625000000000     0.427100000000     0          
O        O      0.788100000000     0.586900000000     0.391550000000     0          
O        O      0.821450000000     0.626700000000     0.376700000000     0          
O        O      0.625000000000     0.677100000000     0.052100000000     0          
O        O      0.663100000000     0.663100000000     0.016550000000     0          
O        O      0.623300000000     0.696450000000     0.001700000000     0          
O        O      0.661500000000     0.713500000000     0.035850000000     0          
O        O      0.572900000000     0.500000000000     0.177100000000     0          
O        O      0.586900000000     0.538100000000     0.141550000000     0          
O        O      0.536500000000     0.536500000000     0.160850000000     0          
O        O      0.572900000000     0.875000000000     0.197900000000     0          
O        O      0.586900000000     0.836900000000     0.233450000000     0          
O        O      0.625000000000     0.697900000000     0.322900000000     0          
O        O      0.663100000000     0.711900000000     0.358450000000     0          
O        O      0.623300000000     0.678550000000     0.373300000000     0          
O        O      0.750000000000     0.927100000000     0.072900000000     0          
O        O      0.711900000000     0.913100000000     0.108450000000     0          
O        O      0.751700000000     0.946450000000     0.123300000000     0          
O        O      0.713500000000     0.963500000000     0.089150000000     0          
O        O      0.552100000000     0.697900000000     0.250000000000     0          
O        O      0.552100000000     0.677100000000     0.125000000000     0          
O        O      0.571450000000     0.626700000000     0.126700000000     0          
O        O      0.588500000000     0.660850000000     0.088500000000     0          
O        O      0.572900000000     0.677100000000     0.000000000000     0          
O        O      0.608450000000     0.663100000000     0.461900000000     0          
O        O      0.589150000000     0.713500000000     0.463500000000     0          
O        O      0.572900000000     0.697900000000     0.375000000000     0          
O        O      0.586900000000     0.733450000000     0.336900000000     0          
O        O      0.501700000000     0.696450000000     0.123300000000     0          
O        O      0.586900000000     0.641550000000     0.038100000000     0          
O        O      0.608450000000     0.711900000000     0.413100000000     0          
O        O      0.589150000000     0.661500000000     0.411500000000     0          
O        O      0.588500000000     0.714150000000     0.286500000000     0          
O        O      0.947900000000     0.625000000000     0.072900000000     0          
O        O      0.625000000000     0.572900000000     0.447900000000     0          
O        O      0.663100000000     0.608450000000     0.461900000000     0          
O        O      0.623300000000     0.623300000000     0.428550000000     0          
O        O      0.661500000000     0.589150000000     0.411500000000     0          
O        O      0.677100000000     0.750000000000     0.322900000000     0          
O        O      0.641550000000     0.788100000000     0.336900000000     0          
O        O      0.626700000000     0.748300000000     0.303550000000     0          
O        O      0.660850000000     0.786500000000     0.286500000000     0          
O        O      0.500000000000     0.572900000000     0.177100000000     0          
O        O      0.677100000000     0.625000000000     0.052100000000     0          
O        O      0.641550000000     0.586900000000     0.038100000000     0          
O        O      0.626700000000     0.626700000000     0.071450000000     0          
O        O      0.660850000000     0.588500000000     0.088500000000     0          
O        O      0.625000000000     0.802100000000     0.427100000000     0          
O        O      0.663100000000     0.766550000000     0.413100000000     0          
O        O      0.623300000000     0.751700000000     0.446450000000     0          
O        O      0.661500000000     0.785850000000     0.463500000000     0          
O        O      0.947900000000     0.750000000000     0.302100000000     0          
O        O      0.911500000000     0.713500000000     0.285850000000     0          
O        O      0.697900000000     0.875000000000     0.072900000000     0          
O        O      0.678550000000     0.873300000000     0.123300000000     0          
O        O      0.875000000000     0.822900000000     0.447900000000     0          
O        O      0.836900000000     0.836900000000     0.483450000000     0          
O        O      0.838500000000     0.786500000000     0.464150000000     0          
O        O      0.927100000000     0.500000000000     0.322900000000     0          
O        O      0.913100000000     0.961900000000     0.358450000000     0          
O        O      0.963500000000     0.963500000000     0.339150000000     0          
O        O      0.927100000000     0.625000000000     0.302100000000     0          
O        O      0.913100000000     0.663100000000     0.266550000000     0          
O        O      0.875000000000     0.802100000000     0.177100000000     0          
O        O      0.836900000000     0.788100000000     0.141550000000     0          
O        O      0.750000000000     0.572900000000     0.427100000000     0          
O        O      0.748300000000     0.553550000000     0.376700000000     0          
O        O      0.786500000000     0.536500000000     0.410850000000     0          
O        O      0.697900000000     0.552100000000     0.250000000000     0          
O        O      0.733450000000     0.538100000000     0.288100000000     0          
O        O      0.748300000000     0.571450000000     0.248300000000     0          
O        O      0.714150000000     0.588500000000     0.286500000000     0          
O        O      0.697900000000     0.572900000000     0.375000000000     0          
O        O      0.711900000000     0.608450000000     0.413100000000     0          
O        O      0.677100000000     0.572900000000     0.000000000000     0          
O        O      0.626700000000     0.553550000000     0.498300000000     0          
O        O      0.677100000000     0.552100000000     0.125000000000     0          
O        O      0.696450000000     0.501700000000     0.123300000000     0          
O        O      0.713500000000     0.535850000000     0.161500000000     0          
O        O      0.733450000000     0.586900000000     0.336900000000     0          
O        O      0.714150000000     0.536500000000     0.338500000000     0          
O        O      0.696450000000     0.623300000000     0.001700000000     0          
O        O      0.713500000000     0.589150000000     0.463500000000     0          
O        O      0.626700000000     0.571450000000     0.126700000000     0          
O        O      0.711900000000     0.516550000000     0.211900000000     0          
O        O      0.678550000000     0.501700000000     0.251700000000     0          
O        O      0.750000000000     0.947900000000     0.302100000000     0          
O        O      0.788100000000     0.983450000000     0.288100000000     0          
O        O      0.748300000000     0.998300000000     0.321450000000     0          
O        O      0.786500000000     0.964150000000     0.338500000000     0          
O        O      0.766550000000     0.663100000000     0.413100000000     0          
O        O      0.751700000000     0.623300000000     0.446450000000     0          
O        O      0.785850000000     0.661500000000     0.463500000000     0          
O        O      0.788100000000     0.641550000000     0.336900000000     0          
O        O      0.748300000000     0.626700000000     0.303550000000     0          
O        O      0.786500000000     0.660850000000     0.286500000000     0          
O        O      0.802100000000     0.500000000000     0.197900000000     0          
O        O      0.766550000000     0.961900000000     0.211900000000     0          
O        O      0.751700000000     0.501700000000     0.178550000000     0          
O        O      0.785850000000     0.963500000000     0.161500000000     0          
O        O      0.788100000000     0.538100000000     0.233450000000     0          
O        O      0.821450000000     0.998300000000     0.248300000000     0          
O        O      0.538100000000     0.836900000000     0.391550000000     0          
O        O      0.588500000000     0.838500000000     0.410850000000     0          
O        O      0.873300000000     0.946450000000     0.001700000000     0          
O        O      0.803550000000     0.748300000000     0.126700000000     0          
O        O      0.750000000000     0.697900000000     0.052100000000     0          
O        O      0.711900000000     0.711900000000     0.016550000000     0          
O        O      0.751700000000     0.678550000000     0.001700000000     0          
O        O      0.713500000000     0.661500000000     0.035850000000     0          
O        O      0.803550000000     0.626700000000     0.248300000000     0          
O        O      0.786500000000     0.588500000000     0.214150000000     0          
O        O      0.873300000000     0.928550000000     0.373300000000     0          
O        O      0.911500000000     0.911500000000     0.339150000000     0          
O        O      0.961900000000     0.663100000000     0.108450000000     0          
O        O      0.802100000000     0.947900000000     0.250000000000     0          
O        O      0.751700000000     0.928550000000     0.251700000000     0          
O        O      0.785850000000     0.911500000000     0.213500000000     0          
O        O      0.802100000000     0.927100000000     0.125000000000     0          
O        O      0.788100000000     0.891550000000     0.086900000000     0          
O        O      0.822900000000     0.927100000000     0.000000000000     0          
O        O      0.822900000000     0.947900000000     0.375000000000     0          
O        O      0.803550000000     0.998300000000     0.376700000000     0          
O        O      0.766550000000     0.913100000000     0.163100000000     0          
O        O      0.803550000000     0.876700000000     0.498300000000     0          
O        O      0.786500000000     0.910850000000     0.036500000000     0          
O        O      0.750000000000     0.552100000000     0.197900000000     0          
O        O      0.733450000000     0.836900000000     0.086900000000     0          
O        O      0.748300000000     0.876700000000     0.053550000000     0          
O        O      0.714150000000     0.838500000000     0.036500000000     0          
O        O      0.711900000000     0.858450000000     0.163100000000     0          
O        O      0.751700000000     0.873300000000     0.196450000000     0          
O        O      0.713500000000     0.839150000000     0.213500000000     0          
O        O      0.697900000000     0.500000000000     0.302100000000     0          
O        O      0.711900000000     0.961900000000     0.266550000000     0          
O        O      0.911500000000     0.661500000000     0.089150000000     0          
O        O      0.696450000000     0.751700000000     0.373300000000     0          
O        O      0.750000000000     0.802100000000     0.447900000000     0          
O        O      0.788100000000     0.788100000000     0.483450000000     0          
O        O      0.748300000000     0.821450000000     0.498300000000     0          
O        O      0.786500000000     0.838500000000     0.464150000000     0          
O        O      0.696450000000     0.873300000000     0.251700000000     0          
O        O      0.713500000000     0.911500000000     0.285850000000     0          
O        O      0.588500000000     0.588500000000     0.160850000000     0          
O        O      0.697900000000     0.802100000000     0.000000000000     0          
O        O      0.733450000000     0.788100000000     0.038100000000     0          
O        O      0.697900000000     0.822900000000     0.125000000000     0          
O        O      0.677100000000     0.822900000000     0.250000000000     0          
O        O      0.626700000000     0.803550000000     0.248300000000     0          
O        O      0.677100000000     0.802100000000     0.375000000000     0          
O        O      0.713500000000     0.785850000000     0.411500000000     0          
O        O      0.714150000000     0.786500000000     0.088500000000     0          
O        O      0.626700000000     0.821450000000     0.376700000000     0          
O        O      0.711900000000     0.766550000000     0.461900000000     0          
O        O      0.678550000000     0.751700000000     0.001700000000     0          
O        O      0.788100000000     0.733450000000     0.038100000000     0          
O        O      0.748300000000     0.748300000000     0.071450000000     0          
O        O      0.786500000000     0.714150000000     0.088500000000     0          
O        O      0.802100000000     0.750000000000     0.447900000000     0          
O        O      0.766550000000     0.711900000000     0.461900000000     0          
O        O      0.751700000000     0.751700000000     0.428550000000     0          
O        O      0.785850000000     0.713500000000     0.411500000000     0          
O        O      0.821450000000     0.748300000000     0.498300000000     0          
O        O      0.538100000000     0.586900000000     0.141550000000     0          
O        O      0.873300000000     0.696450000000     0.251700000000     0          
O        O      0.873300000000     0.678550000000     0.123300000000     0          
O        O      0.961900000000     0.913100000000     0.358450000000     0          
O        O      0.802100000000     0.697900000000     0.000000000000     0          
O        O      0.802100000000     0.677100000000     0.375000000000     0          
O        O      0.822900000000     0.677100000000     0.250000000000     0          
O        O      0.822900000000     0.697900000000     0.125000000000     0          
O        O      0.697900000000     0.750000000000     0.052100000000     0          
O        O      0.947900000000     0.552100000000     0.500000000000     0          
O        O      0.983450000000     0.538100000000     0.538100000000     0          
O        O      0.998300000000     0.571450000000     0.998300000000     0          
O        O      0.964150000000     0.588500000000     0.536500000000     0          
O        O      0.947900000000     0.572900000000     0.625000000000     0          
O        O      0.961900000000     0.608450000000     0.663100000000     0          
O        O      0.928550000000     0.623300000000     0.623300000000     0          
O        O      0.911500000000     0.589150000000     0.661500000000     0          
O        O      0.927100000000     0.572900000000     0.750000000000     0          
O        O      0.891550000000     0.586900000000     0.788100000000     0          
O        O      0.876700000000     0.553550000000     0.748300000000     0          
O        O      0.910850000000     0.536500000000     0.786500000000     0          
O        O      0.927100000000     0.552100000000     0.875000000000     0          
O        O      0.913100000000     0.516550000000     0.913100000000     0          
O        O      0.946450000000     0.501700000000     0.873300000000     0          
O        O      0.963500000000     0.535850000000     0.911500000000     0          
O        O      0.983450000000     0.586900000000     0.586900000000     0          
O        O      0.998300000000     0.553550000000     0.626700000000     0          
O        O      0.964150000000     0.536500000000     0.588500000000     0          
O        O      0.913100000000     0.608450000000     0.711900000000     0          
O        O      0.946450000000     0.623300000000     0.751700000000     0          
O        O      0.963500000000     0.589150000000     0.713500000000     0          
O        O      0.891550000000     0.538100000000     0.836900000000     0          
O        O      0.876700000000     0.571450000000     0.876700000000     0          
O        O      0.910850000000     0.588500000000     0.838500000000     0          
O        O      0.961900000000     0.516550000000     0.961900000000     0          
O        O      0.928550000000     0.501700000000     0.501700000000     0          
O        O      0.911500000000     0.535850000000     0.963500000000     0          
O        O      0.500000000000     0.947900000000     0.552100000000     0          
O        O      0.538100000000     0.983450000000     0.538100000000     0          
O        O      0.998300000000     0.998300000000     0.571450000000     0          
O        O      0.536500000000     0.964150000000     0.588500000000     0          
O        O      0.552100000000     0.625000000000     0.677100000000     0          
O        O      0.516550000000     0.663100000000     0.663100000000     0          
O        O      0.501700000000     0.623300000000     0.696450000000     0          
O        O      0.535850000000     0.661500000000     0.713500000000     0          
O        O      0.875000000000     0.677100000000     0.802100000000     0          
O        O      0.836900000000     0.641550000000     0.788100000000     0          
O        O      0.876700000000     0.626700000000     0.821450000000     0          
O        O      0.838500000000     0.660850000000     0.838500000000     0          
O        O      0.822900000000     0.500000000000     0.927100000000     0          
O        O      0.858450000000     0.961900000000     0.913100000000     0          
O        O      0.873300000000     0.501700000000     0.946450000000     0          
O        O      0.839150000000     0.963500000000     0.963500000000     0          
O        O      0.500000000000     0.677100000000     0.572900000000     0          
O        O      0.538100000000     0.641550000000     0.586900000000     0          
O        O      0.998300000000     0.626700000000     0.553550000000     0          
O        O      0.536500000000     0.660850000000     0.536500000000     0          
O        O      0.822900000000     0.625000000000     0.697900000000     0          
O        O      0.858450000000     0.663100000000     0.711900000000     0          
O        O      0.873300000000     0.623300000000     0.678550000000     0          
O        O      0.839150000000     0.661500000000     0.661500000000     0          
O        O      0.875000000000     0.947900000000     0.822900000000     0          
O        O      0.836900000000     0.983450000000     0.836900000000     0          
O        O      0.876700000000     0.998300000000     0.803550000000     0          
O        O      0.838500000000     0.964150000000     0.786500000000     0          
O        O      0.552100000000     0.500000000000     0.947900000000     0          
O        O      0.516550000000     0.961900000000     0.961900000000     0          
O        O      0.501700000000     0.501700000000     0.928550000000     0          
O        O      0.535850000000     0.963500000000     0.911500000000     0          
O        O      0.538100000000     0.538100000000     0.983450000000     0          
O        O      0.571450000000     0.998300000000     0.998300000000     0          
O        O      0.588500000000     0.536500000000     0.964150000000     0          
O        O      0.802100000000     0.875000000000     0.677100000000     0          
O        O      0.788100000000     0.836900000000     0.641550000000     0          
O        O      0.821450000000     0.876700000000     0.626700000000     0          
O        O      0.838500000000     0.838500000000     0.660850000000     0          
O        O      0.625000000000     0.927100000000     0.802100000000     0          
O        O      0.663100000000     0.913100000000     0.766550000000     0          
O        O      0.623300000000     0.946450000000     0.751700000000     0          
O        O      0.661500000000     0.963500000000     0.785850000000     0          
O        O      0.572900000000     0.750000000000     0.927100000000     0          
O        O      0.586900000000     0.788100000000     0.891550000000     0          
O        O      0.553550000000     0.748300000000     0.876700000000     0          
O        O      0.536500000000     0.786500000000     0.910850000000     0          
O        O      0.500000000000     0.697900000000     0.802100000000     0          
O        O      0.961900000000     0.711900000000     0.766550000000     0          
O        O      0.501700000000     0.678550000000     0.751700000000     0          
O        O      0.963500000000     0.661500000000     0.785850000000     0          
O        O      0.572900000000     0.625000000000     0.947900000000     0          
O        O      0.586900000000     0.586900000000     0.983450000000     0          
O        O      0.553550000000     0.626700000000     0.998300000000     0          
O        O      0.536500000000     0.588500000000     0.964150000000     0          
O        O      0.625000000000     0.947900000000     0.572900000000     0          
O        O      0.663100000000     0.961900000000     0.608450000000     0          
O        O      0.623300000000     0.928550000000     0.623300000000     0          
O        O      0.661500000000     0.911500000000     0.589150000000     0          
O        O      0.750000000000     0.677100000000     0.822900000000     0          
O        O      0.711900000000     0.663100000000     0.858450000000     0          
O        O      0.751700000000     0.696450000000     0.873300000000     0          
O        O      0.713500000000     0.713500000000     0.839150000000     0          
O        O      0.552100000000     0.947900000000     0.500000000000     0          
O        O      0.501700000000     0.928550000000     0.501700000000     0          
O        O      0.535850000000     0.911500000000     0.963500000000     0          
O        O      0.552100000000     0.927100000000     0.875000000000     0          
O        O      0.538100000000     0.891550000000     0.836900000000     0          
O        O      0.571450000000     0.876700000000     0.876700000000     0          
O        O      0.588500000000     0.910850000000     0.838500000000     0          
O        O      0.572900000000     0.927100000000     0.750000000000     0          
O        O      0.608450000000     0.913100000000     0.711900000000     0          
O        O      0.589150000000     0.963500000000     0.713500000000     0          
O        O      0.572900000000     0.947900000000     0.625000000000     0          
O        O      0.586900000000     0.983450000000     0.586900000000     0          
O        O      0.553550000000     0.998300000000     0.626700000000     0          
O        O      0.516550000000     0.913100000000     0.913100000000     0          
O        O      0.501700000000     0.946450000000     0.873300000000     0          
O        O      0.586900000000     0.891550000000     0.788100000000     0          
O        O      0.553550000000     0.876700000000     0.748300000000     0          
O        O      0.536500000000     0.910850000000     0.786500000000     0          
O        O      0.608450000000     0.961900000000     0.663100000000     0          
O        O      0.589150000000     0.911500000000     0.661500000000     0          
O        O      0.588500000000     0.964150000000     0.536500000000     0          
O        O      0.500000000000     0.552100000000     0.947900000000     0          
O        O      0.947900000000     0.875000000000     0.822900000000     0          
O        O      0.983450000000     0.836900000000     0.836900000000     0          
O        O      0.998300000000     0.876700000000     0.803550000000     0          
O        O      0.964150000000     0.838500000000     0.786500000000     0          
O        O      0.625000000000     0.822900000000     0.697900000000     0          
O        O      0.663100000000     0.858450000000     0.711900000000     0          
O        O      0.623300000000     0.873300000000     0.678550000000     0          
O        O      0.661500000000     0.839150000000     0.661500000000     0          
O        O      0.677100000000     0.500000000000     0.572900000000     0          
O        O      0.641550000000     0.538100000000     0.586900000000     0          
O        O      0.626700000000     0.998300000000     0.553550000000     0          
O        O      0.660850000000     0.536500000000     0.536500000000     0          
O        O      0.500000000000     0.822900000000     0.927100000000     0          
O        O      0.961900000000     0.858450000000     0.913100000000     0          
O        O      0.501700000000     0.873300000000     0.946450000000     0          
O        O      0.963500000000     0.839150000000     0.963500000000     0          
O        O      0.677100000000     0.875000000000     0.802100000000     0          
O        O      0.641550000000     0.836900000000     0.788100000000     0          
O        O      0.626700000000     0.876700000000     0.821450000000     0          
O        O      0.660850000000     0.838500000000     0.838500000000     0          
O        O      0.625000000000     0.552100000000     0.677100000000     0          
O        O      0.663100000000     0.516550000000     0.663100000000     0          
O        O      0.623300000000     0.501700000000     0.696450000000     0          
O        O      0.661500000000     0.535850000000     0.713500000000     0          
O        O      0.947900000000     0.500000000000     0.552100000000     0          
O        O      0.961900000000     0.961900000000     0.516550000000     0          
O        O      0.911500000000     0.963500000000     0.535850000000     0          
O        O      0.697900000000     0.625000000000     0.822900000000     0          
O        O      0.678550000000     0.623300000000     0.873300000000     0          
O        O      0.661500000000     0.661500000000     0.839150000000     0          
O        O      0.875000000000     0.572900000000     0.697900000000     0          
O        O      0.836900000000     0.586900000000     0.733450000000     0          
O        O      0.838500000000     0.536500000000     0.714150000000     0          
O        O      0.927100000000     0.750000000000     0.572900000000     0          
O        O      0.913100000000     0.711900000000     0.608450000000     0          
O        O      0.946450000000     0.751700000000     0.623300000000     0          
O        O      0.963500000000     0.713500000000     0.589150000000     0          
O        O      0.500000000000     0.802100000000     0.697900000000     0          
O        O      0.538100000000     0.788100000000     0.733450000000     0          
O        O      0.998300000000     0.821450000000     0.748300000000     0          
O        O      0.536500000000     0.838500000000     0.714150000000     0          
O        O      0.927100000000     0.875000000000     0.552100000000     0          
O        O      0.913100000000     0.913100000000     0.516550000000     0          
O        O      0.946450000000     0.873300000000     0.501700000000     0          
O        O      0.963500000000     0.911500000000     0.535850000000     0          
O        O      0.875000000000     0.552100000000     0.927100000000     0          
O        O      0.836900000000     0.538100000000     0.891550000000     0          
O        O      0.838500000000     0.588500000000     0.910850000000     0          
O        O      0.750000000000     0.822900000000     0.677100000000     0          
O        O      0.748300000000     0.803550000000     0.626700000000     0          
O        O      0.786500000000     0.786500000000     0.660850000000     0          
O        O      0.947900000000     0.802100000000     0.750000000000     0          
O        O      0.983450000000     0.788100000000     0.788100000000     0          
O        O      0.947900000000     0.822900000000     0.875000000000     0          
O        O      0.928550000000     0.873300000000     0.873300000000     0          
O        O      0.911500000000     0.839150000000     0.911500000000     0          
O        O      0.927100000000     0.822900000000     0.500000000000     0          
O        O      0.891550000000     0.836900000000     0.538100000000     0          
O        O      0.876700000000     0.803550000000     0.998300000000     0          
O        O      0.910850000000     0.786500000000     0.536500000000     0          
O        O      0.927100000000     0.802100000000     0.625000000000     0          
O        O      0.913100000000     0.766550000000     0.663100000000     0          
O        O      0.963500000000     0.785850000000     0.661500000000     0          
O        O      0.998300000000     0.803550000000     0.876700000000     0          
O        O      0.964150000000     0.786500000000     0.838500000000     0          
O        O      0.913100000000     0.858450000000     0.961900000000     0          
O        O      0.891550000000     0.788100000000     0.586900000000     0          
O        O      0.876700000000     0.821450000000     0.626700000000     0          
O        O      0.910850000000     0.838500000000     0.588500000000     0          
O        O      0.961900000000     0.766550000000     0.711900000000     0          
O        O      0.928550000000     0.751700000000     0.751700000000     0          
O        O      0.911500000000     0.785850000000     0.713500000000     0          
O        O      0.538100000000     0.733450000000     0.788100000000     0          
O        O      0.998300000000     0.748300000000     0.821450000000     0          
O        O      0.536500000000     0.714150000000     0.838500000000     0          
O        O      0.552100000000     0.875000000000     0.927100000000     0          
O        O      0.875000000000     0.927100000000     0.552100000000     0          
O        O      0.836900000000     0.891550000000     0.538100000000     0          
O        O      0.876700000000     0.876700000000     0.571450000000     0          
O        O      0.838500000000     0.910850000000     0.588500000000     0          
O        O      0.822900000000     0.750000000000     0.677100000000     0          
O        O      0.858450000000     0.711900000000     0.663100000000     0          
O        O      0.873300000000     0.751700000000     0.696450000000     0          
O        O      0.839150000000     0.713500000000     0.713500000000     0          
O        O      0.500000000000     0.927100000000     0.822900000000     0          
O        O      0.822900000000     0.875000000000     0.947900000000     0          
O        O      0.858450000000     0.913100000000     0.961900000000     0          
O        O      0.873300000000     0.873300000000     0.928550000000     0          
O        O      0.839150000000     0.911500000000     0.911500000000     0          
O        O      0.875000000000     0.697900000000     0.572900000000     0          
O        O      0.836900000000     0.733450000000     0.586900000000     0          
O        O      0.876700000000     0.748300000000     0.553550000000     0          
O        O      0.838500000000     0.714150000000     0.536500000000     0          
O        O      0.552100000000     0.750000000000     0.697900000000     0          
O        O      0.516550000000     0.711900000000     0.711900000000     0          
O        O      0.501700000000     0.751700000000     0.678550000000     0          
O        O      0.535850000000     0.713500000000     0.661500000000     0          
O        O      0.571450000000     0.748300000000     0.748300000000     0          
O        O      0.588500000000     0.786500000000     0.714150000000     0          
O        O      0.802100000000     0.625000000000     0.927100000000     0          
O        O      0.788100000000     0.586900000000     0.891550000000     0          
O        O      0.821450000000     0.626700000000     0.876700000000     0          
O        O      0.625000000000     0.677100000000     0.552100000000     0          
O        O      0.663100000000     0.663100000000     0.516550000000     0          
O        O      0.623300000000     0.696450000000     0.501700000000     0          
O        O      0.661500000000     0.713500000000     0.535850000000     0          
O        O      0.572900000000     0.500000000000     0.677100000000     0          
O        O      0.586900000000     0.538100000000     0.641550000000     0          
O        O      0.536500000000     0.536500000000     0.660850000000     0          
O        O      0.572900000000     0.875000000000     0.697900000000     0          
O        O      0.586900000000     0.836900000000     0.733450000000     0          
O        O      0.625000000000     0.697900000000     0.822900000000     0          
O        O      0.663100000000     0.711900000000     0.858450000000     0          
O        O      0.623300000000     0.678550000000     0.873300000000     0          
O        O      0.750000000000     0.927100000000     0.572900000000     0          
O        O      0.711900000000     0.913100000000     0.608450000000     0          
O        O      0.751700000000     0.946450000000     0.623300000000     0          
O        O      0.713500000000     0.963500000000     0.589150000000     0          
O        O      0.552100000000     0.697900000000     0.750000000000     0          
O        O      0.552100000000     0.677100000000     0.625000000000     0          
O        O      0.571450000000     0.626700000000     0.626700000000     0          
O        O      0.588500000000     0.660850000000     0.588500000000     0          
O        O      0.572900000000     0.677100000000     0.500000000000     0          
O        O      0.608450000000     0.663100000000     0.961900000000     0          
O        O      0.589150000000     0.713500000000     0.963500000000     0          
O        O      0.572900000000     0.697900000000     0.875000000000     0          
O        O      0.586900000000     0.733450000000     0.836900000000     0          
O        O      0.501700000000     0.696450000000     0.623300000000     0          
O        O      0.586900000000     0.641550000000     0.538100000000     0          
O        O      0.608450000000     0.711900000000     0.913100000000     0          
O        O      0.589150000000     0.661500000000     0.911500000000     0          
O        O      0.588500000000     0.714150000000     0.786500000000     0          
O        O      0.947900000000     0.625000000000     0.572900000000     0          
O        O      0.625000000000     0.572900000000     0.947900000000     0          
O        O      0.663100000000     0.608450000000     0.961900000000     0          
O        O      0.623300000000     0.623300000000     0.928550000000     0          
O        O      0.661500000000     0.589150000000     0.911500000000     0          
O        O      0.677100000000     0.750000000000     0.822900000000     0          
O        O      0.641550000000     0.788100000000     0.836900000000     0          
O        O      0.626700000000     0.748300000000     0.803550000000     0          
O        O      0.660850000000     0.786500000000     0.786500000000     0          
O        O      0.500000000000     0.572900000000     0.677100000000     0          
O        O      0.677100000000     0.625000000000     0.552100000000     0          
O        O      0.641550000000     0.586900000000     0.538100000000     0          
O        O      0.626700000000     0.626700000000     0.571450000000     0          
O        O      0.660850000000     0.588500000000     0.588500000000     0          
O        O      0.625000000000     0.802100000000     0.927100000000     0          
O        O      0.663100000000     0.766550000000     0.913100000000     0          
O        O      0.623300000000     0.751700000000     0.946450000000     0          
O        O      0.661500000000     0.785850000000     0.963500000000     0          
O        O      0.947900000000     0.750000000000     0.802100000000     0          
O        O      0.911500000000     0.713500000000     0.785850000000     0          
O        O      0.697900000000     0.875000000000     0.572900000000     0          
O        O      0.678550000000     0.873300000000     0.623300000000     0          
O        O      0.875000000000     0.822900000000     0.947900000000     0          
O        O      0.836900000000     0.836900000000     0.983450000000     0          
O        O      0.838500000000     0.786500000000     0.964150000000     0          
O        O      0.927100000000     0.500000000000     0.822900000000     0          
O        O      0.913100000000     0.961900000000     0.858450000000     0          
O        O      0.963500000000     0.963500000000     0.839150000000     0          
O        O      0.927100000000     0.625000000000     0.802100000000     0          
O        O      0.913100000000     0.663100000000     0.766550000000     0          
O        O      0.875000000000     0.802100000000     0.677100000000     0          
O        O      0.836900000000     0.788100000000     0.641550000000     0          
O        O      0.750000000000     0.572900000000     0.927100000000     0          
O        O      0.748300000000     0.553550000000     0.876700000000     0          
O        O      0.786500000000     0.536500000000     0.910850000000     0          
O        O      0.697900000000     0.552100000000     0.750000000000     0          
O        O      0.733450000000     0.538100000000     0.788100000000     0          
O        O      0.748300000000     0.571450000000     0.748300000000     0          
O        O      0.714150000000     0.588500000000     0.786500000000     0          
O        O      0.697900000000     0.572900000000     0.875000000000     0          
O        O      0.711900000000     0.608450000000     0.913100000000     0          
O        O      0.677100000000     0.572900000000     0.500000000000     0          
O        O      0.626700000000     0.553550000000     0.998300000000     0          
O        O      0.677100000000     0.552100000000     0.625000000000     0          
O        O      0.696450000000     0.501700000000     0.623300000000     0          
O        O      0.713500000000     0.535850000000     0.661500000000     0          
O        O      0.733450000000     0.586900000000     0.836900000000     0          
O        O      0.714150000000     0.536500000000     0.838500000000     0          
O        O      0.696450000000     0.623300000000     0.501700000000     0          
O        O      0.713500000000     0.589150000000     0.963500000000     0          
O        O      0.626700000000     0.571450000000     0.626700000000     0          
O        O      0.711900000000     0.516550000000     0.711900000000     0          
O        O      0.678550000000     0.501700000000     0.751700000000     0          
O        O      0.750000000000     0.947900000000     0.802100000000     0          
O        O      0.788100000000     0.983450000000     0.788100000000     0          
O        O      0.748300000000     0.998300000000     0.821450000000     0          
O        O      0.786500000000     0.964150000000     0.838500000000     0          
O        O      0.766550000000     0.663100000000     0.913100000000     0          
O        O      0.751700000000     0.623300000000     0.946450000000     0          
O        O      0.785850000000     0.661500000000     0.963500000000     0          
O        O      0.788100000000     0.641550000000     0.836900000000     0          
O        O      0.748300000000     0.626700000000     0.803550000000     0          
O        O      0.786500000000     0.660850000000     0.786500000000     0          
O        O      0.802100000000     0.500000000000     0.697900000000     0          
O        O      0.766550000000     0.961900000000     0.711900000000     0          
O        O      0.751700000000     0.501700000000     0.678550000000     0          
O        O      0.785850000000     0.963500000000     0.661500000000     0          
O        O      0.788100000000     0.538100000000     0.733450000000     0          
O        O      0.821450000000     0.998300000000     0.748300000000     0          
O        O      0.538100000000     0.836900000000     0.891550000000     0          
O        O      0.588500000000     0.838500000000     0.910850000000     0          
O        O      0.873300000000     0.946450000000     0.501700000000     0          
O        O      0.803550000000     0.748300000000     0.626700000000     0          
O        O      0.750000000000     0.697900000000     0.552100000000     0          
O        O      0.711900000000     0.711900000000     0.516550000000     0          
O        O      0.751700000000     0.678550000000     0.501700000000     0          
O        O      0.713500000000     0.661500000000     0.535850000000     0          
O        O      0.803550000000     0.626700000000     0.748300000000     0          
O        O      0.786500000000     0.588500000000     0.714150000000     0          
O        O      0.873300000000     0.928550000000     0.873300000000     0          
O        O      0.911500000000     0.911500000000     0.839150000000     0          
O        O      0.961900000000     0.663100000000     0.608450000000     0          
O        O      0.802100000000     0.947900000000     0.750000000000     0          
O        O      0.751700000000     0.928550000000     0.751700000000     0          
O        O      0.785850000000     0.911500000000     0.713500000000     0          
O        O      0.802100000000     0.927100000000     0.625000000000     0          
O        O      0.788100000000     0.891550000000     0.586900000000     0          
O        O      0.822900000000     0.927100000000     0.500000000000     0          
O        O      0.822900000000     0.947900000000     0.875000000000     0          
O        O      0.803550000000     0.998300000000     0.876700000000     0          
O        O      0.766550000000     0.913100000000     0.663100000000     0          
O        O      0.803550000000     0.876700000000     0.998300000000     0          
O        O      0.786500000000     0.910850000000     0.536500000000     0          
O        O      0.750000000000     0.552100000000     0.697900000000     0          
O        O      0.733450000000     0.836900000000     0.586900000000     0          
O        O      0.748300000000     0.876700000000     0.553550000000     0          
O        O      0.714150000000     0.838500000000     0.536500000000     0          
O        O      0.711900000000     0.858450000000     0.663100000000     0          
O        O      0.751700000000     0.873300000000     0.696450000000     0          
O        O      0.713500000000     0.839150000000     0.713500000000     0          
O        O      0.697900000000     0.500000000000     0.802100000000     0          
O        O      0.711900000000     0.961900000000     0.766550000000     0          
O        O      0.911500000000     0.661500000000     0.589150000000     0          
O        O      0.696450000000     0.751700000000     0.873300000000     0          
O        O      0.750000000000     0.802100000000     0.947900000000     0          
O        O      0.788100000000     0.788100000000     0.983450000000     0          
O        O      0.748300000000     0.821450000000     0.998300000000     0          
O        O      0.786500000000     0.838500000000     0.964150000000     0          
O        O      0.696450000000     0.873300000000     0.751700000000     0          
O        O      0.713500000000     0.911500000000     0.785850000000     0          
O        O      0.588500000000     0.588500000000     0.660850000000     0          
O        O      0.697900000000     0.802100000000     0.500000000000     0          
O        O      0.733450000000     0.788100000000     0.538100000000     0          
O        O      0.697900000000     0.822900000000     0.625000000000     0          
O        O      0.677100000000     0.822900000000     0.750000000000     0          
O        O      0.626700000000     0.803550000000     0.748300000000     0          
O        O      0.677100000000     0.802100000000     0.875000000000     0          
O        O      0.713500000000     0.785850000000     0.911500000000     0          
O        O      0.714150000000     0.786500000000     0.588500000000     0          
O        O      0.626700000000     0.821450000000     0.876700000000     0          
O        O      0.711900000000     0.766550000000     0.961900000000     0          
O        O      0.678550000000     0.751700000000     0.501700000000     0          
O        O      0.788100000000     0.733450000000     0.538100000000     0          
O        O      0.748300000000     0.748300000000     0.571450000000     0          
O        O      0.786500000000     0.714150000000     0.588500000000     0          
O        O      0.802100000000     0.750000000000     0.947900000000     0          
O        O      0.766550000000     0.711900000000     0.961900000000     0          
O        O      0.751700000000     0.751700000000     0.928550000000     0          
O        O      0.785850000000     0.713500000000     0.911500000000     0          
O        O      0.821450000000     0.748300000000     0.998300000000     0          
O        O      0.538100000000     0.586900000000     0.641550000000     0          
O        O      0.873300000000     0.696450000000     0.751700000000     0          
O        O      0.873300000000     0.678550000000     0.623300000000     0          
O        O      0.961900000000     0.913100000000     0.858450000000     0          
O        O      0.802100000000     0.697900000000     0.500000000000     0          
O        O      0.802100000000     0.677100000000     0.875000000000     0          
O        O      0.822900000000     0.677100000000     0.750000000000     0          
O        O      0.822900000000     0.697900000000     0.625000000000     0          
O        O      0.697900000000     0.750000000000     0.552100000000     0          


