data_zeolite

_audit_creation_method RASPA-1.0
_audit_creation_date 2021-1-10
_audit_author_name ''

_cell_length_a    27.802
_cell_length_b    45.722
_cell_length_c    41.164
_cell_angle_alpha 90
_cell_angle_beta  90
_cell_angle_gamma 90
_cell_volume      52326.2

_symmetry_cell_setting          orthorhombic
_symmetry_space_group_name_Hall 'P 1'
_symmetry_space_group_name_H-M  'P 1'
_symmetry_Int_Tables_number     1

_symmetry_equiv_pos_as_xyz 'x,y,z'

loop_
_atom_site_label
_atom_site_type_symbol
_atom_site_fract_x
_atom_site_fract_y
_atom_site_fract_z
_atom_site_charge
O        O      0.125000000000     0.207450000000     0.250000000000     0          
O        O      0.121550000000     0.195850000000     0.187100000000     0          
O        O      0.201600000000     0.215150000000     0.212400000000     0          
O        O      0.125000000000     0.250000000000     0.207650000000     0          
O        O      0.125000000000     0.181200000000     0.000000000000     0          
O        O      0.080600000000     0.153900000000     0.046900000000     0          
O        O      0.046600000000     0.203800000000     0.022150000000     0          
O        O      0.121650000000     0.204050000000     0.059650000000     0          
O        O      0.202200000000     0.216800000000     0.086500000000     0          
O        O      0.125000000000     0.250000000000     0.097950000000     0          
O        O      0.131800000000     0.196850000000     0.122950000000     0          
O        O      0.083750000000     0.153500000000     0.151550000000     0          
O        O      0.047450000000     0.205350000000     0.149000000000     0          
O        O      0.000000000000     0.249800000000     0.125350000000     0          
O        O      0.000000000000     0.240400000000     0.188000000000     0          
O        O      0.000000000000     0.250000000000     0.250000000000     0          
O        O      0.000000000000     0.238000000000     0.062600000000     0          
O        O      0.000000000000     0.250000000000     0.000000000000     0          
O        O      0.056300000000     0.125000000000     0.099800000000     0          
O        O      0.000000000000     0.125000000000     0.048450000000     0          
O        O      0.000000000000     0.125000000000     0.150900000000     0          
T        Si     0.143700000000     0.217200000000     0.214500000000     0          
T        Si     0.093600000000     0.185550000000     0.032400000000     0          
T        Si     0.144900000000     0.217300000000     0.092350000000     0          
T        Si     0.097300000000     0.187750000000     0.152700000000     0          
T        Si     0.000000000000     0.224950000000     0.152950000000     0          
T        Si     0.000000000000     0.265700000000     0.215100000000     0          
T        Si     0.000000000000     0.224300000000     0.026600000000     0          
T        Si     0.000000000000     0.263600000000     0.089400000000     0          
T        Si     0.054900000000     0.125000000000     0.060800000000     0          
T        Si     0.055200000000     0.125000000000     0.138900000000     0          
O        O      0.125000000000     0.292550000000     0.250000000000     0          
O        O      0.128450000000     0.304150000000     0.187100000000     0          
O        O      0.048400000000     0.284850000000     0.212400000000     0          
O        O      0.125000000000     0.318800000000     0.000000000000     0          
O        O      0.169400000000     0.346100000000     0.046900000000     0          
O        O      0.203400000000     0.296200000000     0.022150000000     0          
O        O      0.128350000000     0.295950000000     0.059650000000     0          
O        O      0.047800000000     0.283200000000     0.086500000000     0          
O        O      0.118200000000     0.303150000000     0.122950000000     0          
O        O      0.166250000000     0.346500000000     0.151550000000     0          
O        O      0.202550000000     0.294650000000     0.149000000000     0          
O        O      0.250000000000     0.250200000000     0.125350000000     0          
O        O      0.250000000000     0.259600000000     0.188000000000     0          
O        O      0.250000000000     0.250000000000     0.250000000000     0          
O        O      0.250000000000     0.262000000000     0.062600000000     0          
O        O      0.250000000000     0.250000000000     0.000000000000     0          
O        O      0.193700000000     0.375000000000     0.099800000000     0          
O        O      0.250000000000     0.375000000000     0.048450000000     0          
O        O      0.250000000000     0.375000000000     0.150900000000     0          
T        Si     0.106300000000     0.282800000000     0.214500000000     0          
T        Si     0.156400000000     0.314450000000     0.032400000000     0          
T        Si     0.105100000000     0.282700000000     0.092350000000     0          
T        Si     0.152700000000     0.312250000000     0.152700000000     0          
T        Si     0.250000000000     0.275050000000     0.152950000000     0          
T        Si     0.250000000000     0.234300000000     0.215100000000     0          
T        Si     0.250000000000     0.275700000000     0.026600000000     0          
T        Si     0.250000000000     0.236400000000     0.089400000000     0          
T        Si     0.195100000000     0.375000000000     0.060800000000     0          
T        Si     0.194800000000     0.375000000000     0.138900000000     0          
O        O      0.121550000000     0.304150000000     0.312900000000     0          
O        O      0.201600000000     0.284850000000     0.287600000000     0          
O        O      0.125000000000     0.250000000000     0.292350000000     0          
O        O      0.080600000000     0.346100000000     0.453100000000     0          
O        O      0.046600000000     0.296200000000     0.477850000000     0          
O        O      0.121650000000     0.295950000000     0.440350000000     0          
O        O      0.202200000000     0.283200000000     0.413500000000     0          
O        O      0.125000000000     0.250000000000     0.402050000000     0          
O        O      0.131800000000     0.303150000000     0.377050000000     0          
O        O      0.083750000000     0.346500000000     0.348450000000     0          
O        O      0.047450000000     0.294650000000     0.351000000000     0          
O        O      0.000000000000     0.250200000000     0.374650000000     0          
O        O      0.000000000000     0.259600000000     0.312000000000     0          
O        O      0.000000000000     0.262000000000     0.437400000000     0          
O        O      0.056300000000     0.375000000000     0.400200000000     0          
O        O      0.000000000000     0.375000000000     0.451550000000     0          
O        O      0.000000000000     0.375000000000     0.349100000000     0          
T        Si     0.143700000000     0.282800000000     0.285500000000     0          
T        Si     0.093600000000     0.314450000000     0.467600000000     0          
T        Si     0.144900000000     0.282700000000     0.407650000000     0          
T        Si     0.097300000000     0.312250000000     0.347300000000     0          
T        Si     0.000000000000     0.275050000000     0.347050000000     0          
T        Si     0.000000000000     0.234300000000     0.284900000000     0          
T        Si     0.000000000000     0.275700000000     0.473400000000     0          
T        Si     0.000000000000     0.236400000000     0.410600000000     0          
T        Si     0.054900000000     0.375000000000     0.439200000000     0          
T        Si     0.055200000000     0.375000000000     0.361100000000     0          
O        O      0.128450000000     0.195850000000     0.312900000000     0          
O        O      0.048400000000     0.215150000000     0.287600000000     0          
O        O      0.169400000000     0.153900000000     0.453100000000     0          
O        O      0.203400000000     0.203800000000     0.477850000000     0          
O        O      0.128350000000     0.204050000000     0.440350000000     0          
O        O      0.047800000000     0.216800000000     0.413500000000     0          
O        O      0.118200000000     0.196850000000     0.377050000000     0          
O        O      0.166250000000     0.153500000000     0.348450000000     0          
O        O      0.202550000000     0.205350000000     0.351000000000     0          
O        O      0.250000000000     0.249800000000     0.374650000000     0          
O        O      0.250000000000     0.240400000000     0.312000000000     0          
O        O      0.250000000000     0.238000000000     0.437400000000     0          
O        O      0.193700000000     0.125000000000     0.400200000000     0          
O        O      0.250000000000     0.125000000000     0.451550000000     0          
O        O      0.250000000000     0.125000000000     0.349100000000     0          
T        Si     0.106300000000     0.217200000000     0.285500000000     0          
T        Si     0.156400000000     0.185550000000     0.467600000000     0          
T        Si     0.105100000000     0.217300000000     0.407650000000     0          
T        Si     0.152700000000     0.187750000000     0.347300000000     0          
T        Si     0.250000000000     0.224950000000     0.347050000000     0          
T        Si     0.250000000000     0.265700000000     0.284900000000     0          
T        Si     0.250000000000     0.224300000000     0.473400000000     0          
T        Si     0.250000000000     0.263600000000     0.410600000000     0          
T        Si     0.195100000000     0.125000000000     0.439200000000     0          
T        Si     0.194800000000     0.125000000000     0.361100000000     0          
O        O      0.375000000000     0.292550000000     0.250000000000     0          
O        O      0.378450000000     0.304150000000     0.312900000000     0          
O        O      0.298400000000     0.284850000000     0.287600000000     0          
O        O      0.375000000000     0.250000000000     0.292350000000     0          
O        O      0.375000000000     0.318800000000     0.000000000000     0          
O        O      0.419400000000     0.346100000000     0.453100000000     0          
O        O      0.453400000000     0.296200000000     0.477850000000     0          
O        O      0.378350000000     0.295950000000     0.440350000000     0          
O        O      0.297800000000     0.283200000000     0.413500000000     0          
O        O      0.375000000000     0.250000000000     0.402050000000     0          
O        O      0.368200000000     0.303150000000     0.377050000000     0          
O        O      0.416250000000     0.346500000000     0.348450000000     0          
O        O      0.452550000000     0.294650000000     0.351000000000     0          
O        O      0.443700000000     0.375000000000     0.400200000000     0          
T        Si     0.356300000000     0.282800000000     0.285500000000     0          
T        Si     0.406400000000     0.314450000000     0.467600000000     0          
T        Si     0.355100000000     0.282700000000     0.407650000000     0          
T        Si     0.402700000000     0.312250000000     0.347300000000     0          
T        Si     0.445100000000     0.375000000000     0.439200000000     0          
T        Si     0.444800000000     0.375000000000     0.361100000000     0          
O        O      0.375000000000     0.207450000000     0.250000000000     0          
O        O      0.371550000000     0.195850000000     0.312900000000     0          
O        O      0.451600000000     0.215150000000     0.287600000000     0          
O        O      0.375000000000     0.181200000000     0.000000000000     0          
O        O      0.330600000000     0.153900000000     0.453100000000     0          
O        O      0.296600000000     0.203800000000     0.477850000000     0          
O        O      0.371650000000     0.204050000000     0.440350000000     0          
O        O      0.452200000000     0.216800000000     0.413500000000     0          
O        O      0.381800000000     0.196850000000     0.377050000000     0          
O        O      0.333750000000     0.153500000000     0.348450000000     0          
O        O      0.297450000000     0.205350000000     0.351000000000     0          
O        O      0.306300000000     0.125000000000     0.400200000000     0          
T        Si     0.393700000000     0.217200000000     0.285500000000     0          
T        Si     0.343600000000     0.185550000000     0.467600000000     0          
T        Si     0.394900000000     0.217300000000     0.407650000000     0          
T        Si     0.347300000000     0.187750000000     0.347300000000     0          
T        Si     0.304900000000     0.125000000000     0.439200000000     0          
T        Si     0.305200000000     0.125000000000     0.361100000000     0          
O        O      0.378450000000     0.195850000000     0.187100000000     0          
O        O      0.298400000000     0.215150000000     0.212400000000     0          
O        O      0.375000000000     0.250000000000     0.207650000000     0          
O        O      0.419400000000     0.153900000000     0.046900000000     0          
O        O      0.453400000000     0.203800000000     0.022150000000     0          
O        O      0.378350000000     0.204050000000     0.059650000000     0          
O        O      0.297800000000     0.216800000000     0.086500000000     0          
O        O      0.375000000000     0.250000000000     0.097950000000     0          
O        O      0.368200000000     0.196850000000     0.122950000000     0          
O        O      0.416250000000     0.153500000000     0.151550000000     0          
O        O      0.452550000000     0.205350000000     0.149000000000     0          
O        O      0.443700000000     0.125000000000     0.099800000000     0          
T        Si     0.356300000000     0.217200000000     0.214500000000     0          
T        Si     0.406400000000     0.185550000000     0.032400000000     0          
T        Si     0.355100000000     0.217300000000     0.092350000000     0          
T        Si     0.402700000000     0.187750000000     0.152700000000     0          
T        Si     0.445100000000     0.125000000000     0.060800000000     0          
T        Si     0.444800000000     0.125000000000     0.138900000000     0          
O        O      0.371550000000     0.304150000000     0.187100000000     0          
O        O      0.451600000000     0.284850000000     0.212400000000     0          
O        O      0.330600000000     0.346100000000     0.046900000000     0          
O        O      0.296600000000     0.296200000000     0.022150000000     0          
O        O      0.371650000000     0.295950000000     0.059650000000     0          
O        O      0.452200000000     0.283200000000     0.086500000000     0          
O        O      0.381800000000     0.303150000000     0.122950000000     0          
O        O      0.333750000000     0.346500000000     0.151550000000     0          
O        O      0.297450000000     0.294650000000     0.149000000000     0          
O        O      0.306300000000     0.375000000000     0.099800000000     0          
T        Si     0.393700000000     0.282800000000     0.214500000000     0          
T        Si     0.343600000000     0.314450000000     0.032400000000     0          
T        Si     0.394900000000     0.282700000000     0.092350000000     0          
T        Si     0.347300000000     0.312250000000     0.152700000000     0          
T        Si     0.304900000000     0.375000000000     0.060800000000     0          
T        Si     0.305200000000     0.375000000000     0.138900000000     0          
O        O      0.375000000000     0.457450000000     0.250000000000     0          
O        O      0.371550000000     0.445850000000     0.187100000000     0          
O        O      0.451600000000     0.465150000000     0.212400000000     0          
O        O      0.375000000000     0.000000000000     0.207650000000     0          
O        O      0.375000000000     0.431200000000     0.000000000000     0          
O        O      0.330600000000     0.403900000000     0.046900000000     0          
O        O      0.296600000000     0.453800000000     0.022150000000     0          
O        O      0.371650000000     0.454050000000     0.059650000000     0          
O        O      0.452200000000     0.466800000000     0.086500000000     0          
O        O      0.375000000000     0.000000000000     0.097950000000     0          
O        O      0.381800000000     0.446850000000     0.122950000000     0          
O        O      0.333750000000     0.403500000000     0.151550000000     0          
O        O      0.297450000000     0.455350000000     0.149000000000     0          
O        O      0.250000000000     0.499800000000     0.125350000000     0          
O        O      0.250000000000     0.490400000000     0.188000000000     0          
O        O      0.250000000000     0.000000000000     0.250000000000     0          
O        O      0.250000000000     0.488000000000     0.062600000000     0          
O        O      0.250000000000     0.000000000000     0.000000000000     0          
T        Si     0.393700000000     0.467200000000     0.214500000000     0          
T        Si     0.343600000000     0.435550000000     0.032400000000     0          
T        Si     0.394900000000     0.467300000000     0.092350000000     0          
T        Si     0.347300000000     0.437750000000     0.152700000000     0          
T        Si     0.250000000000     0.474950000000     0.152950000000     0          
T        Si     0.250000000000     0.015700000000     0.215100000000     0          
T        Si     0.250000000000     0.474300000000     0.026600000000     0          
T        Si     0.250000000000     0.013600000000     0.089400000000     0          
O        O      0.375000000000     0.042550000000     0.250000000000     0          
O        O      0.378450000000     0.054150000000     0.187100000000     0          
O        O      0.298400000000     0.034850000000     0.212400000000     0          
O        O      0.375000000000     0.068800000000     0.000000000000     0          
O        O      0.419400000000     0.096100000000     0.046900000000     0          
O        O      0.453400000000     0.046200000000     0.022150000000     0          
O        O      0.378350000000     0.045950000000     0.059650000000     0          
O        O      0.297800000000     0.033200000000     0.086500000000     0          
O        O      0.368200000000     0.053150000000     0.122950000000     0          
O        O      0.416250000000     0.096500000000     0.151550000000     0          
O        O      0.452550000000     0.044650000000     0.149000000000     0          
O        O      0.000000000000     0.000200000000     0.125350000000     0          
O        O      0.000000000000     0.009600000000     0.188000000000     0          
O        O      0.000000000000     0.000000000000     0.250000000000     0          
O        O      0.000000000000     0.012000000000     0.062600000000     0          
O        O      0.000000000000     0.000000000000     0.000000000000     0          
T        Si     0.356300000000     0.032800000000     0.214500000000     0          
T        Si     0.406400000000     0.064450000000     0.032400000000     0          
T        Si     0.355100000000     0.032700000000     0.092350000000     0          
T        Si     0.402700000000     0.062250000000     0.152700000000     0          
T        Si     0.000000000000     0.025050000000     0.152950000000     0          
T        Si     0.000000000000     0.484300000000     0.215100000000     0          
T        Si     0.000000000000     0.025700000000     0.026600000000     0          
T        Si     0.000000000000     0.486400000000     0.089400000000     0          
O        O      0.371550000000     0.054150000000     0.312900000000     0          
O        O      0.451600000000     0.034850000000     0.287600000000     0          
O        O      0.375000000000     0.000000000000     0.292350000000     0          
O        O      0.330600000000     0.096100000000     0.453100000000     0          
O        O      0.296600000000     0.046200000000     0.477850000000     0          
O        O      0.371650000000     0.045950000000     0.440350000000     0          
O        O      0.452200000000     0.033200000000     0.413500000000     0          
O        O      0.375000000000     0.000000000000     0.402050000000     0          
O        O      0.381800000000     0.053150000000     0.377050000000     0          
O        O      0.333750000000     0.096500000000     0.348450000000     0          
O        O      0.297450000000     0.044650000000     0.351000000000     0          
O        O      0.250000000000     0.000200000000     0.374650000000     0          
O        O      0.250000000000     0.009600000000     0.312000000000     0          
O        O      0.250000000000     0.012000000000     0.437400000000     0          
T        Si     0.393700000000     0.032800000000     0.285500000000     0          
T        Si     0.343600000000     0.064450000000     0.467600000000     0          
T        Si     0.394900000000     0.032700000000     0.407650000000     0          
T        Si     0.347300000000     0.062250000000     0.347300000000     0          
T        Si     0.250000000000     0.025050000000     0.347050000000     0          
T        Si     0.250000000000     0.484300000000     0.284900000000     0          
T        Si     0.250000000000     0.025700000000     0.473400000000     0          
T        Si     0.250000000000     0.486400000000     0.410600000000     0          
O        O      0.378450000000     0.445850000000     0.312900000000     0          
O        O      0.298400000000     0.465150000000     0.287600000000     0          
O        O      0.419400000000     0.403900000000     0.453100000000     0          
O        O      0.453400000000     0.453800000000     0.477850000000     0          
O        O      0.378350000000     0.454050000000     0.440350000000     0          
O        O      0.297800000000     0.466800000000     0.413500000000     0          
O        O      0.368200000000     0.446850000000     0.377050000000     0          
O        O      0.416250000000     0.403500000000     0.348450000000     0          
O        O      0.452550000000     0.455350000000     0.351000000000     0          
O        O      0.000000000000     0.499800000000     0.374650000000     0          
O        O      0.000000000000     0.490400000000     0.312000000000     0          
O        O      0.000000000000     0.488000000000     0.437400000000     0          
T        Si     0.356300000000     0.467200000000     0.285500000000     0          
T        Si     0.406400000000     0.435550000000     0.467600000000     0          
T        Si     0.355100000000     0.467300000000     0.407650000000     0          
T        Si     0.402700000000     0.437750000000     0.347300000000     0          
T        Si     0.000000000000     0.474950000000     0.347050000000     0          
T        Si     0.000000000000     0.015700000000     0.284900000000     0          
T        Si     0.000000000000     0.474300000000     0.473400000000     0          
T        Si     0.000000000000     0.013600000000     0.410600000000     0          
O        O      0.125000000000     0.042550000000     0.250000000000     0          
O        O      0.128450000000     0.054150000000     0.312900000000     0          
O        O      0.048400000000     0.034850000000     0.287600000000     0          
O        O      0.125000000000     0.000000000000     0.292350000000     0          
O        O      0.125000000000     0.068800000000     0.000000000000     0          
O        O      0.169400000000     0.096100000000     0.453100000000     0          
O        O      0.203400000000     0.046200000000     0.477850000000     0          
O        O      0.128350000000     0.045950000000     0.440350000000     0          
O        O      0.047800000000     0.033200000000     0.413500000000     0          
O        O      0.125000000000     0.000000000000     0.402050000000     0          
O        O      0.118200000000     0.053150000000     0.377050000000     0          
O        O      0.166250000000     0.096500000000     0.348450000000     0          
O        O      0.202550000000     0.044650000000     0.351000000000     0          
T        Si     0.106300000000     0.032800000000     0.285500000000     0          
T        Si     0.156400000000     0.064450000000     0.467600000000     0          
T        Si     0.105100000000     0.032700000000     0.407650000000     0          
T        Si     0.152700000000     0.062250000000     0.347300000000     0          
O        O      0.125000000000     0.457450000000     0.250000000000     0          
O        O      0.121550000000     0.445850000000     0.312900000000     0          
O        O      0.201600000000     0.465150000000     0.287600000000     0          
O        O      0.125000000000     0.431200000000     0.000000000000     0          
O        O      0.080600000000     0.403900000000     0.453100000000     0          
O        O      0.046600000000     0.453800000000     0.477850000000     0          
O        O      0.121650000000     0.454050000000     0.440350000000     0          
O        O      0.202200000000     0.466800000000     0.413500000000     0          
O        O      0.131800000000     0.446850000000     0.377050000000     0          
O        O      0.083750000000     0.403500000000     0.348450000000     0          
O        O      0.047450000000     0.455350000000     0.351000000000     0          
T        Si     0.143700000000     0.467200000000     0.285500000000     0          
T        Si     0.093600000000     0.435550000000     0.467600000000     0          
T        Si     0.144900000000     0.467300000000     0.407650000000     0          
T        Si     0.097300000000     0.437750000000     0.347300000000     0          
O        O      0.128450000000     0.445850000000     0.187100000000     0          
O        O      0.048400000000     0.465150000000     0.212400000000     0          
O        O      0.125000000000     0.000000000000     0.207650000000     0          
O        O      0.169400000000     0.403900000000     0.046900000000     0          
O        O      0.203400000000     0.453800000000     0.022150000000     0          
O        O      0.128350000000     0.454050000000     0.059650000000     0          
O        O      0.047800000000     0.466800000000     0.086500000000     0          
O        O      0.125000000000     0.000000000000     0.097950000000     0          
O        O      0.118200000000     0.446850000000     0.122950000000     0          
O        O      0.166250000000     0.403500000000     0.151550000000     0          
O        O      0.202550000000     0.455350000000     0.149000000000     0          
T        Si     0.106300000000     0.467200000000     0.214500000000     0          
T        Si     0.156400000000     0.435550000000     0.032400000000     0          
T        Si     0.105100000000     0.467300000000     0.092350000000     0          
T        Si     0.152700000000     0.437750000000     0.152700000000     0          
O        O      0.121550000000     0.054150000000     0.187100000000     0          
O        O      0.201600000000     0.034850000000     0.212400000000     0          
O        O      0.080600000000     0.096100000000     0.046900000000     0          
O        O      0.046600000000     0.046200000000     0.022150000000     0          
O        O      0.121650000000     0.045950000000     0.059650000000     0          
O        O      0.202200000000     0.033200000000     0.086500000000     0          
O        O      0.131800000000     0.053150000000     0.122950000000     0          
O        O      0.083750000000     0.096500000000     0.151550000000     0          
O        O      0.047450000000     0.044650000000     0.149000000000     0          
T        Si     0.143700000000     0.032800000000     0.214500000000     0          
T        Si     0.093600000000     0.064450000000     0.032400000000     0          
T        Si     0.144900000000     0.032700000000     0.092350000000     0          
T        Si     0.097300000000     0.062250000000     0.152700000000     0          
O        O      0.125000000000     0.207450000000     0.750000000000     0          
O        O      0.121550000000     0.195850000000     0.687100000000     0          
O        O      0.201600000000     0.215150000000     0.712400000000     0          
O        O      0.125000000000     0.250000000000     0.707650000000     0          
O        O      0.125000000000     0.181200000000     0.500000000000     0          
O        O      0.080600000000     0.153900000000     0.546900000000     0          
O        O      0.046600000000     0.203800000000     0.522150000000     0          
O        O      0.121650000000     0.204050000000     0.559650000000     0          
O        O      0.202200000000     0.216800000000     0.586500000000     0          
O        O      0.125000000000     0.250000000000     0.597950000000     0          
O        O      0.131800000000     0.196850000000     0.622950000000     0          
O        O      0.083750000000     0.153500000000     0.651550000000     0          
O        O      0.047450000000     0.205350000000     0.649000000000     0          
O        O      0.000000000000     0.249800000000     0.625350000000     0          
O        O      0.000000000000     0.240400000000     0.688000000000     0          
O        O      0.000000000000     0.250000000000     0.750000000000     0          
O        O      0.000000000000     0.238000000000     0.562600000000     0          
O        O      0.000000000000     0.250000000000     0.500000000000     0          
O        O      0.056300000000     0.125000000000     0.599800000000     0          
O        O      0.000000000000     0.125000000000     0.548450000000     0          
O        O      0.000000000000     0.125000000000     0.650900000000     0          
T        Si     0.143700000000     0.217200000000     0.714500000000     0          
T        Si     0.093600000000     0.185550000000     0.532400000000     0          
T        Si     0.144900000000     0.217300000000     0.592350000000     0          
T        Si     0.097300000000     0.187750000000     0.652700000000     0          
T        Si     0.000000000000     0.224950000000     0.652950000000     0          
T        Si     0.000000000000     0.265700000000     0.715100000000     0          
T        Si     0.000000000000     0.224300000000     0.526600000000     0          
T        Si     0.000000000000     0.263600000000     0.589400000000     0          
T        Si     0.054900000000     0.125000000000     0.560800000000     0          
T        Si     0.055200000000     0.125000000000     0.638900000000     0          
O        O      0.125000000000     0.292550000000     0.750000000000     0          
O        O      0.128450000000     0.304150000000     0.687100000000     0          
O        O      0.048400000000     0.284850000000     0.712400000000     0          
O        O      0.125000000000     0.318800000000     0.500000000000     0          
O        O      0.169400000000     0.346100000000     0.546900000000     0          
O        O      0.203400000000     0.296200000000     0.522150000000     0          
O        O      0.128350000000     0.295950000000     0.559650000000     0          
O        O      0.047800000000     0.283200000000     0.586500000000     0          
O        O      0.118200000000     0.303150000000     0.622950000000     0          
O        O      0.166250000000     0.346500000000     0.651550000000     0          
O        O      0.202550000000     0.294650000000     0.649000000000     0          
O        O      0.250000000000     0.250200000000     0.625350000000     0          
O        O      0.250000000000     0.259600000000     0.688000000000     0          
O        O      0.250000000000     0.250000000000     0.750000000000     0          
O        O      0.250000000000     0.262000000000     0.562600000000     0          
O        O      0.250000000000     0.250000000000     0.500000000000     0          
O        O      0.193700000000     0.375000000000     0.599800000000     0          
O        O      0.250000000000     0.375000000000     0.548450000000     0          
O        O      0.250000000000     0.375000000000     0.650900000000     0          
T        Si     0.106300000000     0.282800000000     0.714500000000     0          
T        Si     0.156400000000     0.314450000000     0.532400000000     0          
T        Si     0.105100000000     0.282700000000     0.592350000000     0          
T        Si     0.152700000000     0.312250000000     0.652700000000     0          
T        Si     0.250000000000     0.275050000000     0.652950000000     0          
T        Si     0.250000000000     0.234300000000     0.715100000000     0          
T        Si     0.250000000000     0.275700000000     0.526600000000     0          
T        Si     0.250000000000     0.236400000000     0.589400000000     0          
T        Si     0.195100000000     0.375000000000     0.560800000000     0          
T        Si     0.194800000000     0.375000000000     0.638900000000     0          
O        O      0.121550000000     0.304150000000     0.812900000000     0          
O        O      0.201600000000     0.284850000000     0.787600000000     0          
O        O      0.125000000000     0.250000000000     0.792350000000     0          
O        O      0.080600000000     0.346100000000     0.953100000000     0          
O        O      0.046600000000     0.296200000000     0.977850000000     0          
O        O      0.121650000000     0.295950000000     0.940350000000     0          
O        O      0.202200000000     0.283200000000     0.913500000000     0          
O        O      0.125000000000     0.250000000000     0.902050000000     0          
O        O      0.131800000000     0.303150000000     0.877050000000     0          
O        O      0.083750000000     0.346500000000     0.848450000000     0          
O        O      0.047450000000     0.294650000000     0.851000000000     0          
O        O      0.000000000000     0.250200000000     0.874650000000     0          
O        O      0.000000000000     0.259600000000     0.812000000000     0          
O        O      0.000000000000     0.262000000000     0.937400000000     0          
O        O      0.056300000000     0.375000000000     0.900200000000     0          
O        O      0.000000000000     0.375000000000     0.951550000000     0          
O        O      0.000000000000     0.375000000000     0.849100000000     0          
T        Si     0.143700000000     0.282800000000     0.785500000000     0          
T        Si     0.093600000000     0.314450000000     0.967600000000     0          
T        Si     0.144900000000     0.282700000000     0.907650000000     0          
T        Si     0.097300000000     0.312250000000     0.847300000000     0          
T        Si     0.000000000000     0.275050000000     0.847050000000     0          
T        Si     0.000000000000     0.234300000000     0.784900000000     0          
T        Si     0.000000000000     0.275700000000     0.973400000000     0          
T        Si     0.000000000000     0.236400000000     0.910600000000     0          
T        Si     0.054900000000     0.375000000000     0.939200000000     0          
T        Si     0.055200000000     0.375000000000     0.861100000000     0          
O        O      0.128450000000     0.195850000000     0.812900000000     0          
O        O      0.048400000000     0.215150000000     0.787600000000     0          
O        O      0.169400000000     0.153900000000     0.953100000000     0          
O        O      0.203400000000     0.203800000000     0.977850000000     0          
O        O      0.128350000000     0.204050000000     0.940350000000     0          
O        O      0.047800000000     0.216800000000     0.913500000000     0          
O        O      0.118200000000     0.196850000000     0.877050000000     0          
O        O      0.166250000000     0.153500000000     0.848450000000     0          
O        O      0.202550000000     0.205350000000     0.851000000000     0          
O        O      0.250000000000     0.249800000000     0.874650000000     0          
O        O      0.250000000000     0.240400000000     0.812000000000     0          
O        O      0.250000000000     0.238000000000     0.937400000000     0          
O        O      0.193700000000     0.125000000000     0.900200000000     0          
O        O      0.250000000000     0.125000000000     0.951550000000     0          
O        O      0.250000000000     0.125000000000     0.849100000000     0          
T        Si     0.106300000000     0.217200000000     0.785500000000     0          
T        Si     0.156400000000     0.185550000000     0.967600000000     0          
T        Si     0.105100000000     0.217300000000     0.907650000000     0          
T        Si     0.152700000000     0.187750000000     0.847300000000     0          
T        Si     0.250000000000     0.224950000000     0.847050000000     0          
T        Si     0.250000000000     0.265700000000     0.784900000000     0          
T        Si     0.250000000000     0.224300000000     0.973400000000     0          
T        Si     0.250000000000     0.263600000000     0.910600000000     0          
T        Si     0.195100000000     0.125000000000     0.939200000000     0          
T        Si     0.194800000000     0.125000000000     0.861100000000     0          
O        O      0.375000000000     0.292550000000     0.750000000000     0          
O        O      0.378450000000     0.304150000000     0.812900000000     0          
O        O      0.298400000000     0.284850000000     0.787600000000     0          
O        O      0.375000000000     0.250000000000     0.792350000000     0          
O        O      0.375000000000     0.318800000000     0.500000000000     0          
O        O      0.419400000000     0.346100000000     0.953100000000     0          
O        O      0.453400000000     0.296200000000     0.977850000000     0          
O        O      0.378350000000     0.295950000000     0.940350000000     0          
O        O      0.297800000000     0.283200000000     0.913500000000     0          
O        O      0.375000000000     0.250000000000     0.902050000000     0          
O        O      0.368200000000     0.303150000000     0.877050000000     0          
O        O      0.416250000000     0.346500000000     0.848450000000     0          
O        O      0.452550000000     0.294650000000     0.851000000000     0          
O        O      0.443700000000     0.375000000000     0.900200000000     0          
T        Si     0.356300000000     0.282800000000     0.785500000000     0          
T        Si     0.406400000000     0.314450000000     0.967600000000     0          
T        Si     0.355100000000     0.282700000000     0.907650000000     0          
T        Si     0.402700000000     0.312250000000     0.847300000000     0          
T        Si     0.445100000000     0.375000000000     0.939200000000     0          
T        Si     0.444800000000     0.375000000000     0.861100000000     0          
O        O      0.375000000000     0.207450000000     0.750000000000     0          
O        O      0.371550000000     0.195850000000     0.812900000000     0          
O        O      0.451600000000     0.215150000000     0.787600000000     0          
O        O      0.375000000000     0.181200000000     0.500000000000     0          
O        O      0.330600000000     0.153900000000     0.953100000000     0          
O        O      0.296600000000     0.203800000000     0.977850000000     0          
O        O      0.371650000000     0.204050000000     0.940350000000     0          
O        O      0.452200000000     0.216800000000     0.913500000000     0          
O        O      0.381800000000     0.196850000000     0.877050000000     0          
O        O      0.333750000000     0.153500000000     0.848450000000     0          
O        O      0.297450000000     0.205350000000     0.851000000000     0          
O        O      0.306300000000     0.125000000000     0.900200000000     0          
T        Si     0.393700000000     0.217200000000     0.785500000000     0          
T        Si     0.343600000000     0.185550000000     0.967600000000     0          
T        Si     0.394900000000     0.217300000000     0.907650000000     0          
T        Si     0.347300000000     0.187750000000     0.847300000000     0          
T        Si     0.304900000000     0.125000000000     0.939200000000     0          
T        Si     0.305200000000     0.125000000000     0.861100000000     0          
O        O      0.378450000000     0.195850000000     0.687100000000     0          
O        O      0.298400000000     0.215150000000     0.712400000000     0          
O        O      0.375000000000     0.250000000000     0.707650000000     0          
O        O      0.419400000000     0.153900000000     0.546900000000     0          
O        O      0.453400000000     0.203800000000     0.522150000000     0          
O        O      0.378350000000     0.204050000000     0.559650000000     0          
O        O      0.297800000000     0.216800000000     0.586500000000     0          
O        O      0.375000000000     0.250000000000     0.597950000000     0          
O        O      0.368200000000     0.196850000000     0.622950000000     0          
O        O      0.416250000000     0.153500000000     0.651550000000     0          
O        O      0.452550000000     0.205350000000     0.649000000000     0          
O        O      0.443700000000     0.125000000000     0.599800000000     0          
T        Si     0.356300000000     0.217200000000     0.714500000000     0          
T        Si     0.406400000000     0.185550000000     0.532400000000     0          
T        Si     0.355100000000     0.217300000000     0.592350000000     0          
T        Si     0.402700000000     0.187750000000     0.652700000000     0          
T        Si     0.445100000000     0.125000000000     0.560800000000     0          
T        Si     0.444800000000     0.125000000000     0.638900000000     0          
O        O      0.371550000000     0.304150000000     0.687100000000     0          
O        O      0.451600000000     0.284850000000     0.712400000000     0          
O        O      0.330600000000     0.346100000000     0.546900000000     0          
O        O      0.296600000000     0.296200000000     0.522150000000     0          
O        O      0.371650000000     0.295950000000     0.559650000000     0          
O        O      0.452200000000     0.283200000000     0.586500000000     0          
O        O      0.381800000000     0.303150000000     0.622950000000     0          
O        O      0.333750000000     0.346500000000     0.651550000000     0          
O        O      0.297450000000     0.294650000000     0.649000000000     0          
O        O      0.306300000000     0.375000000000     0.599800000000     0          
T        Si     0.393700000000     0.282800000000     0.714500000000     0          
T        Si     0.343600000000     0.314450000000     0.532400000000     0          
T        Si     0.394900000000     0.282700000000     0.592350000000     0          
T        Si     0.347300000000     0.312250000000     0.652700000000     0          
T        Si     0.304900000000     0.375000000000     0.560800000000     0          
T        Si     0.305200000000     0.375000000000     0.638900000000     0          
O        O      0.375000000000     0.457450000000     0.750000000000     0          
O        O      0.371550000000     0.445850000000     0.687100000000     0          
O        O      0.451600000000     0.465150000000     0.712400000000     0          
O        O      0.375000000000     0.000000000000     0.707650000000     0          
O        O      0.375000000000     0.431200000000     0.500000000000     0          
O        O      0.330600000000     0.403900000000     0.546900000000     0          
O        O      0.296600000000     0.453800000000     0.522150000000     0          
O        O      0.371650000000     0.454050000000     0.559650000000     0          
O        O      0.452200000000     0.466800000000     0.586500000000     0          
O        O      0.375000000000     0.000000000000     0.597950000000     0          
O        O      0.381800000000     0.446850000000     0.622950000000     0          
O        O      0.333750000000     0.403500000000     0.651550000000     0          
O        O      0.297450000000     0.455350000000     0.649000000000     0          
O        O      0.250000000000     0.499800000000     0.625350000000     0          
O        O      0.250000000000     0.490400000000     0.688000000000     0          
O        O      0.250000000000     0.000000000000     0.750000000000     0          
O        O      0.250000000000     0.488000000000     0.562600000000     0          
O        O      0.250000000000     0.000000000000     0.500000000000     0          
T        Si     0.393700000000     0.467200000000     0.714500000000     0          
T        Si     0.343600000000     0.435550000000     0.532400000000     0          
T        Si     0.394900000000     0.467300000000     0.592350000000     0          
T        Si     0.347300000000     0.437750000000     0.652700000000     0          
T        Si     0.250000000000     0.474950000000     0.652950000000     0          
T        Si     0.250000000000     0.015700000000     0.715100000000     0          
T        Si     0.250000000000     0.474300000000     0.526600000000     0          
T        Si     0.250000000000     0.013600000000     0.589400000000     0          
O        O      0.375000000000     0.042550000000     0.750000000000     0          
O        O      0.378450000000     0.054150000000     0.687100000000     0          
O        O      0.298400000000     0.034850000000     0.712400000000     0          
O        O      0.375000000000     0.068800000000     0.500000000000     0          
O        O      0.419400000000     0.096100000000     0.546900000000     0          
O        O      0.453400000000     0.046200000000     0.522150000000     0          
O        O      0.378350000000     0.045950000000     0.559650000000     0          
O        O      0.297800000000     0.033200000000     0.586500000000     0          
O        O      0.368200000000     0.053150000000     0.622950000000     0          
O        O      0.416250000000     0.096500000000     0.651550000000     0          
O        O      0.452550000000     0.044650000000     0.649000000000     0          
O        O      0.000000000000     0.000200000000     0.625350000000     0          
O        O      0.000000000000     0.009600000000     0.688000000000     0          
O        O      0.000000000000     0.000000000000     0.750000000000     0          
O        O      0.000000000000     0.012000000000     0.562600000000     0          
O        O      0.000000000000     0.000000000000     0.500000000000     0          
T        Si     0.356300000000     0.032800000000     0.714500000000     0          
T        Si     0.406400000000     0.064450000000     0.532400000000     0          
T        Si     0.355100000000     0.032700000000     0.592350000000     0          
T        Si     0.402700000000     0.062250000000     0.652700000000     0          
T        Si     0.000000000000     0.025050000000     0.652950000000     0          
T        Si     0.000000000000     0.484300000000     0.715100000000     0          
T        Si     0.000000000000     0.025700000000     0.526600000000     0          
T        Si     0.000000000000     0.486400000000     0.589400000000     0          
O        O      0.371550000000     0.054150000000     0.812900000000     0          
O        O      0.451600000000     0.034850000000     0.787600000000     0          
O        O      0.375000000000     0.000000000000     0.792350000000     0          
O        O      0.330600000000     0.096100000000     0.953100000000     0          
O        O      0.296600000000     0.046200000000     0.977850000000     0          
O        O      0.371650000000     0.045950000000     0.940350000000     0          
O        O      0.452200000000     0.033200000000     0.913500000000     0          
O        O      0.375000000000     0.000000000000     0.902050000000     0          
O        O      0.381800000000     0.053150000000     0.877050000000     0          
O        O      0.333750000000     0.096500000000     0.848450000000     0          
O        O      0.297450000000     0.044650000000     0.851000000000     0          
O        O      0.250000000000     0.000200000000     0.874650000000     0          
O        O      0.250000000000     0.009600000000     0.812000000000     0          
O        O      0.250000000000     0.012000000000     0.937400000000     0          
T        Si     0.393700000000     0.032800000000     0.785500000000     0          
T        Si     0.343600000000     0.064450000000     0.967600000000     0          
T        Si     0.394900000000     0.032700000000     0.907650000000     0          
T        Si     0.347300000000     0.062250000000     0.847300000000     0          
T        Si     0.250000000000     0.025050000000     0.847050000000     0          
T        Si     0.250000000000     0.484300000000     0.784900000000     0          
T        Si     0.250000000000     0.025700000000     0.973400000000     0          
T        Si     0.250000000000     0.486400000000     0.910600000000     0          
O        O      0.378450000000     0.445850000000     0.812900000000     0          
O        O      0.298400000000     0.465150000000     0.787600000000     0          
O        O      0.419400000000     0.403900000000     0.953100000000     0          
O        O      0.453400000000     0.453800000000     0.977850000000     0          
O        O      0.378350000000     0.454050000000     0.940350000000     0          
O        O      0.297800000000     0.466800000000     0.913500000000     0          
O        O      0.368200000000     0.446850000000     0.877050000000     0          
O        O      0.416250000000     0.403500000000     0.848450000000     0          
O        O      0.452550000000     0.455350000000     0.851000000000     0          
O        O      0.000000000000     0.499800000000     0.874650000000     0          
O        O      0.000000000000     0.490400000000     0.812000000000     0          
O        O      0.000000000000     0.488000000000     0.937400000000     0          
T        Si     0.356300000000     0.467200000000     0.785500000000     0          
T        Si     0.406400000000     0.435550000000     0.967600000000     0          
T        Si     0.355100000000     0.467300000000     0.907650000000     0          
T        Si     0.402700000000     0.437750000000     0.847300000000     0          
T        Si     0.000000000000     0.474950000000     0.847050000000     0          
T        Si     0.000000000000     0.015700000000     0.784900000000     0          
T        Si     0.000000000000     0.474300000000     0.973400000000     0          
T        Si     0.000000000000     0.013600000000     0.910600000000     0          
O        O      0.125000000000     0.042550000000     0.750000000000     0          
O        O      0.128450000000     0.054150000000     0.812900000000     0          
O        O      0.048400000000     0.034850000000     0.787600000000     0          
O        O      0.125000000000     0.000000000000     0.792350000000     0          
O        O      0.125000000000     0.068800000000     0.500000000000     0          
O        O      0.169400000000     0.096100000000     0.953100000000     0          
O        O      0.203400000000     0.046200000000     0.977850000000     0          
O        O      0.128350000000     0.045950000000     0.940350000000     0          
O        O      0.047800000000     0.033200000000     0.913500000000     0          
O        O      0.125000000000     0.000000000000     0.902050000000     0          
O        O      0.118200000000     0.053150000000     0.877050000000     0          
O        O      0.166250000000     0.096500000000     0.848450000000     0          
O        O      0.202550000000     0.044650000000     0.851000000000     0          
T        Si     0.106300000000     0.032800000000     0.785500000000     0          
T        Si     0.156400000000     0.064450000000     0.967600000000     0          
T        Si     0.105100000000     0.032700000000     0.907650000000     0          
T        Si     0.152700000000     0.062250000000     0.847300000000     0          
O        O      0.125000000000     0.457450000000     0.750000000000     0          
O        O      0.121550000000     0.445850000000     0.812900000000     0          
O        O      0.201600000000     0.465150000000     0.787600000000     0          
O        O      0.125000000000     0.431200000000     0.500000000000     0          
O        O      0.080600000000     0.403900000000     0.953100000000     0          
O        O      0.046600000000     0.453800000000     0.977850000000     0          
O        O      0.121650000000     0.454050000000     0.940350000000     0          
O        O      0.202200000000     0.466800000000     0.913500000000     0          
O        O      0.131800000000     0.446850000000     0.877050000000     0          
O        O      0.083750000000     0.403500000000     0.848450000000     0          
O        O      0.047450000000     0.455350000000     0.851000000000     0          
T        Si     0.143700000000     0.467200000000     0.785500000000     0          
T        Si     0.093600000000     0.435550000000     0.967600000000     0          
T        Si     0.144900000000     0.467300000000     0.907650000000     0          
T        Si     0.097300000000     0.437750000000     0.847300000000     0          
O        O      0.128450000000     0.445850000000     0.687100000000     0          
O        O      0.048400000000     0.465150000000     0.712400000000     0          
O        O      0.125000000000     0.000000000000     0.707650000000     0          
O        O      0.169400000000     0.403900000000     0.546900000000     0          
O        O      0.203400000000     0.453800000000     0.522150000000     0          
O        O      0.128350000000     0.454050000000     0.559650000000     0          
O        O      0.047800000000     0.466800000000     0.586500000000     0          
O        O      0.125000000000     0.000000000000     0.597950000000     0          
O        O      0.118200000000     0.446850000000     0.622950000000     0          
O        O      0.166250000000     0.403500000000     0.651550000000     0          
O        O      0.202550000000     0.455350000000     0.649000000000     0          
T        Si     0.106300000000     0.467200000000     0.714500000000     0          
T        Si     0.156400000000     0.435550000000     0.532400000000     0          
T        Si     0.105100000000     0.467300000000     0.592350000000     0          
T        Si     0.152700000000     0.437750000000     0.652700000000     0          
O        O      0.121550000000     0.054150000000     0.687100000000     0          
O        O      0.201600000000     0.034850000000     0.712400000000     0          
O        O      0.080600000000     0.096100000000     0.546900000000     0          
O        O      0.046600000000     0.046200000000     0.522150000000     0          
O        O      0.121650000000     0.045950000000     0.559650000000     0          
O        O      0.202200000000     0.033200000000     0.586500000000     0          
O        O      0.131800000000     0.053150000000     0.622950000000     0          
O        O      0.083750000000     0.096500000000     0.651550000000     0          
O        O      0.047450000000     0.044650000000     0.649000000000     0          
T        Si     0.143700000000     0.032800000000     0.714500000000     0          
T        Si     0.093600000000     0.064450000000     0.532400000000     0          
T        Si     0.144900000000     0.032700000000     0.592350000000     0          
T        Si     0.097300000000     0.062250000000     0.652700000000     0          
O        O      0.125000000000     0.707450000000     0.250000000000     0          
O        O      0.121550000000     0.695850000000     0.187100000000     0          
O        O      0.201600000000     0.715150000000     0.212400000000     0          
O        O      0.125000000000     0.750000000000     0.207650000000     0          
O        O      0.125000000000     0.681200000000     0.000000000000     0          
O        O      0.080600000000     0.653900000000     0.046900000000     0          
O        O      0.046600000000     0.703800000000     0.022150000000     0          
O        O      0.121650000000     0.704050000000     0.059650000000     0          
O        O      0.202200000000     0.716800000000     0.086500000000     0          
O        O      0.125000000000     0.750000000000     0.097950000000     0          
O        O      0.131800000000     0.696850000000     0.122950000000     0          
O        O      0.083750000000     0.653500000000     0.151550000000     0          
O        O      0.047450000000     0.705350000000     0.149000000000     0          
O        O      0.000000000000     0.749800000000     0.125350000000     0          
O        O      0.000000000000     0.740400000000     0.188000000000     0          
O        O      0.000000000000     0.750000000000     0.250000000000     0          
O        O      0.000000000000     0.738000000000     0.062600000000     0          
O        O      0.000000000000     0.750000000000     0.000000000000     0          
O        O      0.056300000000     0.625000000000     0.099800000000     0          
O        O      0.000000000000     0.625000000000     0.048450000000     0          
O        O      0.000000000000     0.625000000000     0.150900000000     0          
T        Si     0.143700000000     0.717200000000     0.214500000000     0          
T        Si     0.093600000000     0.685550000000     0.032400000000     0          
T        Si     0.144900000000     0.717300000000     0.092350000000     0          
T        Si     0.097300000000     0.687750000000     0.152700000000     0          
T        Si     0.000000000000     0.724950000000     0.152950000000     0          
T        Si     0.000000000000     0.765700000000     0.215100000000     0          
T        Si     0.000000000000     0.724300000000     0.026600000000     0          
T        Si     0.000000000000     0.763600000000     0.089400000000     0          
T        Si     0.054900000000     0.625000000000     0.060800000000     0          
T        Si     0.055200000000     0.625000000000     0.138900000000     0          
O        O      0.125000000000     0.792550000000     0.250000000000     0          
O        O      0.128450000000     0.804150000000     0.187100000000     0          
O        O      0.048400000000     0.784850000000     0.212400000000     0          
O        O      0.125000000000     0.818800000000     0.000000000000     0          
O        O      0.169400000000     0.846100000000     0.046900000000     0          
O        O      0.203400000000     0.796200000000     0.022150000000     0          
O        O      0.128350000000     0.795950000000     0.059650000000     0          
O        O      0.047800000000     0.783200000000     0.086500000000     0          
O        O      0.118200000000     0.803150000000     0.122950000000     0          
O        O      0.166250000000     0.846500000000     0.151550000000     0          
O        O      0.202550000000     0.794650000000     0.149000000000     0          
O        O      0.250000000000     0.750200000000     0.125350000000     0          
O        O      0.250000000000     0.759600000000     0.188000000000     0          
O        O      0.250000000000     0.750000000000     0.250000000000     0          
O        O      0.250000000000     0.762000000000     0.062600000000     0          
O        O      0.250000000000     0.750000000000     0.000000000000     0          
O        O      0.193700000000     0.875000000000     0.099800000000     0          
O        O      0.250000000000     0.875000000000     0.048450000000     0          
O        O      0.250000000000     0.875000000000     0.150900000000     0          
T        Si     0.106300000000     0.782800000000     0.214500000000     0          
T        Si     0.156400000000     0.814450000000     0.032400000000     0          
T        Si     0.105100000000     0.782700000000     0.092350000000     0          
T        Si     0.152700000000     0.812250000000     0.152700000000     0          
T        Si     0.250000000000     0.775050000000     0.152950000000     0          
T        Si     0.250000000000     0.734300000000     0.215100000000     0          
T        Si     0.250000000000     0.775700000000     0.026600000000     0          
T        Si     0.250000000000     0.736400000000     0.089400000000     0          
T        Si     0.195100000000     0.875000000000     0.060800000000     0          
T        Si     0.194800000000     0.875000000000     0.138900000000     0          
O        O      0.121550000000     0.804150000000     0.312900000000     0          
O        O      0.201600000000     0.784850000000     0.287600000000     0          
O        O      0.125000000000     0.750000000000     0.292350000000     0          
O        O      0.080600000000     0.846100000000     0.453100000000     0          
O        O      0.046600000000     0.796200000000     0.477850000000     0          
O        O      0.121650000000     0.795950000000     0.440350000000     0          
O        O      0.202200000000     0.783200000000     0.413500000000     0          
O        O      0.125000000000     0.750000000000     0.402050000000     0          
O        O      0.131800000000     0.803150000000     0.377050000000     0          
O        O      0.083750000000     0.846500000000     0.348450000000     0          
O        O      0.047450000000     0.794650000000     0.351000000000     0          
O        O      0.000000000000     0.750200000000     0.374650000000     0          
O        O      0.000000000000     0.759600000000     0.312000000000     0          
O        O      0.000000000000     0.762000000000     0.437400000000     0          
O        O      0.056300000000     0.875000000000     0.400200000000     0          
O        O      0.000000000000     0.875000000000     0.451550000000     0          
O        O      0.000000000000     0.875000000000     0.349100000000     0          
T        Si     0.143700000000     0.782800000000     0.285500000000     0          
T        Si     0.093600000000     0.814450000000     0.467600000000     0          
T        Si     0.144900000000     0.782700000000     0.407650000000     0          
T        Si     0.097300000000     0.812250000000     0.347300000000     0          
T        Si     0.000000000000     0.775050000000     0.347050000000     0          
T        Si     0.000000000000     0.734300000000     0.284900000000     0          
T        Si     0.000000000000     0.775700000000     0.473400000000     0          
T        Si     0.000000000000     0.736400000000     0.410600000000     0          
T        Si     0.054900000000     0.875000000000     0.439200000000     0          
T        Si     0.055200000000     0.875000000000     0.361100000000     0          
O        O      0.128450000000     0.695850000000     0.312900000000     0          
O        O      0.048400000000     0.715150000000     0.287600000000     0          
O        O      0.169400000000     0.653900000000     0.453100000000     0          
O        O      0.203400000000     0.703800000000     0.477850000000     0          
O        O      0.128350000000     0.704050000000     0.440350000000     0          
O        O      0.047800000000     0.716800000000     0.413500000000     0          
O        O      0.118200000000     0.696850000000     0.377050000000     0          
O        O      0.166250000000     0.653500000000     0.348450000000     0          
O        O      0.202550000000     0.705350000000     0.351000000000     0          
O        O      0.250000000000     0.749800000000     0.374650000000     0          
O        O      0.250000000000     0.740400000000     0.312000000000     0          
O        O      0.250000000000     0.738000000000     0.437400000000     0          
O        O      0.193700000000     0.625000000000     0.400200000000     0          
O        O      0.250000000000     0.625000000000     0.451550000000     0          
O        O      0.250000000000     0.625000000000     0.349100000000     0          
T        Si     0.106300000000     0.717200000000     0.285500000000     0          
T        Si     0.156400000000     0.685550000000     0.467600000000     0          
T        Si     0.105100000000     0.717300000000     0.407650000000     0          
T        Si     0.152700000000     0.687750000000     0.347300000000     0          
T        Si     0.250000000000     0.724950000000     0.347050000000     0          
T        Si     0.250000000000     0.765700000000     0.284900000000     0          
T        Si     0.250000000000     0.724300000000     0.473400000000     0          
T        Si     0.250000000000     0.763600000000     0.410600000000     0          
T        Si     0.195100000000     0.625000000000     0.439200000000     0          
T        Si     0.194800000000     0.625000000000     0.361100000000     0          
O        O      0.375000000000     0.792550000000     0.250000000000     0          
O        O      0.378450000000     0.804150000000     0.312900000000     0          
O        O      0.298400000000     0.784850000000     0.287600000000     0          
O        O      0.375000000000     0.750000000000     0.292350000000     0          
O        O      0.375000000000     0.818800000000     0.000000000000     0          
O        O      0.419400000000     0.846100000000     0.453100000000     0          
O        O      0.453400000000     0.796200000000     0.477850000000     0          
O        O      0.378350000000     0.795950000000     0.440350000000     0          
O        O      0.297800000000     0.783200000000     0.413500000000     0          
O        O      0.375000000000     0.750000000000     0.402050000000     0          
O        O      0.368200000000     0.803150000000     0.377050000000     0          
O        O      0.416250000000     0.846500000000     0.348450000000     0          
O        O      0.452550000000     0.794650000000     0.351000000000     0          
O        O      0.443700000000     0.875000000000     0.400200000000     0          
T        Si     0.356300000000     0.782800000000     0.285500000000     0          
T        Si     0.406400000000     0.814450000000     0.467600000000     0          
T        Si     0.355100000000     0.782700000000     0.407650000000     0          
T        Si     0.402700000000     0.812250000000     0.347300000000     0          
T        Si     0.445100000000     0.875000000000     0.439200000000     0          
T        Si     0.444800000000     0.875000000000     0.361100000000     0          
O        O      0.375000000000     0.707450000000     0.250000000000     0          
O        O      0.371550000000     0.695850000000     0.312900000000     0          
O        O      0.451600000000     0.715150000000     0.287600000000     0          
O        O      0.375000000000     0.681200000000     0.000000000000     0          
O        O      0.330600000000     0.653900000000     0.453100000000     0          
O        O      0.296600000000     0.703800000000     0.477850000000     0          
O        O      0.371650000000     0.704050000000     0.440350000000     0          
O        O      0.452200000000     0.716800000000     0.413500000000     0          
O        O      0.381800000000     0.696850000000     0.377050000000     0          
O        O      0.333750000000     0.653500000000     0.348450000000     0          
O        O      0.297450000000     0.705350000000     0.351000000000     0          
O        O      0.306300000000     0.625000000000     0.400200000000     0          
T        Si     0.393700000000     0.717200000000     0.285500000000     0          
T        Si     0.343600000000     0.685550000000     0.467600000000     0          
T        Si     0.394900000000     0.717300000000     0.407650000000     0          
T        Si     0.347300000000     0.687750000000     0.347300000000     0          
T        Si     0.304900000000     0.625000000000     0.439200000000     0          
T        Si     0.305200000000     0.625000000000     0.361100000000     0          
O        O      0.378450000000     0.695850000000     0.187100000000     0          
O        O      0.298400000000     0.715150000000     0.212400000000     0          
O        O      0.375000000000     0.750000000000     0.207650000000     0          
O        O      0.419400000000     0.653900000000     0.046900000000     0          
O        O      0.453400000000     0.703800000000     0.022150000000     0          
O        O      0.378350000000     0.704050000000     0.059650000000     0          
O        O      0.297800000000     0.716800000000     0.086500000000     0          
O        O      0.375000000000     0.750000000000     0.097950000000     0          
O        O      0.368200000000     0.696850000000     0.122950000000     0          
O        O      0.416250000000     0.653500000000     0.151550000000     0          
O        O      0.452550000000     0.705350000000     0.149000000000     0          
O        O      0.443700000000     0.625000000000     0.099800000000     0          
T        Si     0.356300000000     0.717200000000     0.214500000000     0          
T        Si     0.406400000000     0.685550000000     0.032400000000     0          
T        Si     0.355100000000     0.717300000000     0.092350000000     0          
T        Si     0.402700000000     0.687750000000     0.152700000000     0          
T        Si     0.445100000000     0.625000000000     0.060800000000     0          
T        Si     0.444800000000     0.625000000000     0.138900000000     0          
O        O      0.371550000000     0.804150000000     0.187100000000     0          
O        O      0.451600000000     0.784850000000     0.212400000000     0          
O        O      0.330600000000     0.846100000000     0.046900000000     0          
O        O      0.296600000000     0.796200000000     0.022150000000     0          
O        O      0.371650000000     0.795950000000     0.059650000000     0          
O        O      0.452200000000     0.783200000000     0.086500000000     0          
O        O      0.381800000000     0.803150000000     0.122950000000     0          
O        O      0.333750000000     0.846500000000     0.151550000000     0          
O        O      0.297450000000     0.794650000000     0.149000000000     0          
O        O      0.306300000000     0.875000000000     0.099800000000     0          
T        Si     0.393700000000     0.782800000000     0.214500000000     0          
T        Si     0.343600000000     0.814450000000     0.032400000000     0          
T        Si     0.394900000000     0.782700000000     0.092350000000     0          
T        Si     0.347300000000     0.812250000000     0.152700000000     0          
T        Si     0.304900000000     0.875000000000     0.060800000000     0          
T        Si     0.305200000000     0.875000000000     0.138900000000     0          
O        O      0.375000000000     0.957450000000     0.250000000000     0          
O        O      0.371550000000     0.945850000000     0.187100000000     0          
O        O      0.451600000000     0.965150000000     0.212400000000     0          
O        O      0.375000000000     0.500000000000     0.207650000000     0          
O        O      0.375000000000     0.931200000000     0.000000000000     0          
O        O      0.330600000000     0.903900000000     0.046900000000     0          
O        O      0.296600000000     0.953800000000     0.022150000000     0          
O        O      0.371650000000     0.954050000000     0.059650000000     0          
O        O      0.452200000000     0.966800000000     0.086500000000     0          
O        O      0.375000000000     0.500000000000     0.097950000000     0          
O        O      0.381800000000     0.946850000000     0.122950000000     0          
O        O      0.333750000000     0.903500000000     0.151550000000     0          
O        O      0.297450000000     0.955350000000     0.149000000000     0          
O        O      0.250000000000     0.999800000000     0.125350000000     0          
O        O      0.250000000000     0.990400000000     0.188000000000     0          
O        O      0.250000000000     0.500000000000     0.250000000000     0          
O        O      0.250000000000     0.988000000000     0.062600000000     0          
O        O      0.250000000000     0.500000000000     0.000000000000     0          
T        Si     0.393700000000     0.967200000000     0.214500000000     0          
T        Si     0.343600000000     0.935550000000     0.032400000000     0          
T        Si     0.394900000000     0.967300000000     0.092350000000     0          
T        Si     0.347300000000     0.937750000000     0.152700000000     0          
T        Si     0.250000000000     0.974950000000     0.152950000000     0          
T        Si     0.250000000000     0.515700000000     0.215100000000     0          
T        Si     0.250000000000     0.974300000000     0.026600000000     0          
T        Si     0.250000000000     0.513600000000     0.089400000000     0          
O        O      0.375000000000     0.542550000000     0.250000000000     0          
O        O      0.378450000000     0.554150000000     0.187100000000     0          
O        O      0.298400000000     0.534850000000     0.212400000000     0          
O        O      0.375000000000     0.568800000000     0.000000000000     0          
O        O      0.419400000000     0.596100000000     0.046900000000     0          
O        O      0.453400000000     0.546200000000     0.022150000000     0          
O        O      0.378350000000     0.545950000000     0.059650000000     0          
O        O      0.297800000000     0.533200000000     0.086500000000     0          
O        O      0.368200000000     0.553150000000     0.122950000000     0          
O        O      0.416250000000     0.596500000000     0.151550000000     0          
O        O      0.452550000000     0.544650000000     0.149000000000     0          
O        O      0.000000000000     0.500200000000     0.125350000000     0          
O        O      0.000000000000     0.509600000000     0.188000000000     0          
O        O      0.000000000000     0.500000000000     0.250000000000     0          
O        O      0.000000000000     0.512000000000     0.062600000000     0          
O        O      0.000000000000     0.500000000000     0.000000000000     0          
T        Si     0.356300000000     0.532800000000     0.214500000000     0          
T        Si     0.406400000000     0.564450000000     0.032400000000     0          
T        Si     0.355100000000     0.532700000000     0.092350000000     0          
T        Si     0.402700000000     0.562250000000     0.152700000000     0          
T        Si     0.000000000000     0.525050000000     0.152950000000     0          
T        Si     0.000000000000     0.984300000000     0.215100000000     0          
T        Si     0.000000000000     0.525700000000     0.026600000000     0          
T        Si     0.000000000000     0.986400000000     0.089400000000     0          
O        O      0.371550000000     0.554150000000     0.312900000000     0          
O        O      0.451600000000     0.534850000000     0.287600000000     0          
O        O      0.375000000000     0.500000000000     0.292350000000     0          
O        O      0.330600000000     0.596100000000     0.453100000000     0          
O        O      0.296600000000     0.546200000000     0.477850000000     0          
O        O      0.371650000000     0.545950000000     0.440350000000     0          
O        O      0.452200000000     0.533200000000     0.413500000000     0          
O        O      0.375000000000     0.500000000000     0.402050000000     0          
O        O      0.381800000000     0.553150000000     0.377050000000     0          
O        O      0.333750000000     0.596500000000     0.348450000000     0          
O        O      0.297450000000     0.544650000000     0.351000000000     0          
O        O      0.250000000000     0.500200000000     0.374650000000     0          
O        O      0.250000000000     0.509600000000     0.312000000000     0          
O        O      0.250000000000     0.512000000000     0.437400000000     0          
T        Si     0.393700000000     0.532800000000     0.285500000000     0          
T        Si     0.343600000000     0.564450000000     0.467600000000     0          
T        Si     0.394900000000     0.532700000000     0.407650000000     0          
T        Si     0.347300000000     0.562250000000     0.347300000000     0          
T        Si     0.250000000000     0.525050000000     0.347050000000     0          
T        Si     0.250000000000     0.984300000000     0.284900000000     0          
T        Si     0.250000000000     0.525700000000     0.473400000000     0          
T        Si     0.250000000000     0.986400000000     0.410600000000     0          
O        O      0.378450000000     0.945850000000     0.312900000000     0          
O        O      0.298400000000     0.965150000000     0.287600000000     0          
O        O      0.419400000000     0.903900000000     0.453100000000     0          
O        O      0.453400000000     0.953800000000     0.477850000000     0          
O        O      0.378350000000     0.954050000000     0.440350000000     0          
O        O      0.297800000000     0.966800000000     0.413500000000     0          
O        O      0.368200000000     0.946850000000     0.377050000000     0          
O        O      0.416250000000     0.903500000000     0.348450000000     0          
O        O      0.452550000000     0.955350000000     0.351000000000     0          
O        O      0.000000000000     0.999800000000     0.374650000000     0          
O        O      0.000000000000     0.990400000000     0.312000000000     0          
O        O      0.000000000000     0.988000000000     0.437400000000     0          
T        Si     0.356300000000     0.967200000000     0.285500000000     0          
T        Si     0.406400000000     0.935550000000     0.467600000000     0          
T        Si     0.355100000000     0.967300000000     0.407650000000     0          
T        Si     0.402700000000     0.937750000000     0.347300000000     0          
T        Si     0.000000000000     0.974950000000     0.347050000000     0          
T        Si     0.000000000000     0.515700000000     0.284900000000     0          
T        Si     0.000000000000     0.974300000000     0.473400000000     0          
T        Si     0.000000000000     0.513600000000     0.410600000000     0          
O        O      0.125000000000     0.542550000000     0.250000000000     0          
O        O      0.128450000000     0.554150000000     0.312900000000     0          
O        O      0.048400000000     0.534850000000     0.287600000000     0          
O        O      0.125000000000     0.500000000000     0.292350000000     0          
O        O      0.125000000000     0.568800000000     0.000000000000     0          
O        O      0.169400000000     0.596100000000     0.453100000000     0          
O        O      0.203400000000     0.546200000000     0.477850000000     0          
O        O      0.128350000000     0.545950000000     0.440350000000     0          
O        O      0.047800000000     0.533200000000     0.413500000000     0          
O        O      0.125000000000     0.500000000000     0.402050000000     0          
O        O      0.118200000000     0.553150000000     0.377050000000     0          
O        O      0.166250000000     0.596500000000     0.348450000000     0          
O        O      0.202550000000     0.544650000000     0.351000000000     0          
T        Si     0.106300000000     0.532800000000     0.285500000000     0          
T        Si     0.156400000000     0.564450000000     0.467600000000     0          
T        Si     0.105100000000     0.532700000000     0.407650000000     0          
T        Si     0.152700000000     0.562250000000     0.347300000000     0          
O        O      0.125000000000     0.957450000000     0.250000000000     0          
O        O      0.121550000000     0.945850000000     0.312900000000     0          
O        O      0.201600000000     0.965150000000     0.287600000000     0          
O        O      0.125000000000     0.931200000000     0.000000000000     0          
O        O      0.080600000000     0.903900000000     0.453100000000     0          
O        O      0.046600000000     0.953800000000     0.477850000000     0          
O        O      0.121650000000     0.954050000000     0.440350000000     0          
O        O      0.202200000000     0.966800000000     0.413500000000     0          
O        O      0.131800000000     0.946850000000     0.377050000000     0          
O        O      0.083750000000     0.903500000000     0.348450000000     0          
O        O      0.047450000000     0.955350000000     0.351000000000     0          
T        Si     0.143700000000     0.967200000000     0.285500000000     0          
T        Si     0.093600000000     0.935550000000     0.467600000000     0          
T        Si     0.144900000000     0.967300000000     0.407650000000     0          
T        Si     0.097300000000     0.937750000000     0.347300000000     0          
O        O      0.128450000000     0.945850000000     0.187100000000     0          
O        O      0.048400000000     0.965150000000     0.212400000000     0          
O        O      0.125000000000     0.500000000000     0.207650000000     0          
O        O      0.169400000000     0.903900000000     0.046900000000     0          
O        O      0.203400000000     0.953800000000     0.022150000000     0          
O        O      0.128350000000     0.954050000000     0.059650000000     0          
O        O      0.047800000000     0.966800000000     0.086500000000     0          
O        O      0.125000000000     0.500000000000     0.097950000000     0          
O        O      0.118200000000     0.946850000000     0.122950000000     0          
O        O      0.166250000000     0.903500000000     0.151550000000     0          
O        O      0.202550000000     0.955350000000     0.149000000000     0          
T        Si     0.106300000000     0.967200000000     0.214500000000     0          
T        Si     0.156400000000     0.935550000000     0.032400000000     0          
T        Si     0.105100000000     0.967300000000     0.092350000000     0          
T        Si     0.152700000000     0.937750000000     0.152700000000     0          
O        O      0.121550000000     0.554150000000     0.187100000000     0          
O        O      0.201600000000     0.534850000000     0.212400000000     0          
O        O      0.080600000000     0.596100000000     0.046900000000     0          
O        O      0.046600000000     0.546200000000     0.022150000000     0          
O        O      0.121650000000     0.545950000000     0.059650000000     0          
O        O      0.202200000000     0.533200000000     0.086500000000     0          
O        O      0.131800000000     0.553150000000     0.122950000000     0          
O        O      0.083750000000     0.596500000000     0.151550000000     0          
O        O      0.047450000000     0.544650000000     0.149000000000     0          
T        Si     0.143700000000     0.532800000000     0.214500000000     0          
T        Si     0.093600000000     0.564450000000     0.032400000000     0          
T        Si     0.144900000000     0.532700000000     0.092350000000     0          
T        Si     0.097300000000     0.562250000000     0.152700000000     0          
O        O      0.125000000000     0.707450000000     0.750000000000     0          
O        O      0.121550000000     0.695850000000     0.687100000000     0          
O        O      0.201600000000     0.715150000000     0.712400000000     0          
O        O      0.125000000000     0.750000000000     0.707650000000     0          
O        O      0.125000000000     0.681200000000     0.500000000000     0          
O        O      0.080600000000     0.653900000000     0.546900000000     0          
O        O      0.046600000000     0.703800000000     0.522150000000     0          
O        O      0.121650000000     0.704050000000     0.559650000000     0          
O        O      0.202200000000     0.716800000000     0.586500000000     0          
O        O      0.125000000000     0.750000000000     0.597950000000     0          
O        O      0.131800000000     0.696850000000     0.622950000000     0          
O        O      0.083750000000     0.653500000000     0.651550000000     0          
O        O      0.047450000000     0.705350000000     0.649000000000     0          
O        O      0.000000000000     0.749800000000     0.625350000000     0          
O        O      0.000000000000     0.740400000000     0.688000000000     0          
O        O      0.000000000000     0.750000000000     0.750000000000     0          
O        O      0.000000000000     0.738000000000     0.562600000000     0          
O        O      0.000000000000     0.750000000000     0.500000000000     0          
O        O      0.056300000000     0.625000000000     0.599800000000     0          
O        O      0.000000000000     0.625000000000     0.548450000000     0          
O        O      0.000000000000     0.625000000000     0.650900000000     0          
T        Si     0.143700000000     0.717200000000     0.714500000000     0          
T        Si     0.093600000000     0.685550000000     0.532400000000     0          
T        Si     0.144900000000     0.717300000000     0.592350000000     0          
T        Si     0.097300000000     0.687750000000     0.652700000000     0          
T        Si     0.000000000000     0.724950000000     0.652950000000     0          
T        Si     0.000000000000     0.765700000000     0.715100000000     0          
T        Si     0.000000000000     0.724300000000     0.526600000000     0          
T        Si     0.000000000000     0.763600000000     0.589400000000     0          
T        Si     0.054900000000     0.625000000000     0.560800000000     0          
T        Si     0.055200000000     0.625000000000     0.638900000000     0          
O        O      0.125000000000     0.792550000000     0.750000000000     0          
O        O      0.128450000000     0.804150000000     0.687100000000     0          
O        O      0.048400000000     0.784850000000     0.712400000000     0          
O        O      0.125000000000     0.818800000000     0.500000000000     0          
O        O      0.169400000000     0.846100000000     0.546900000000     0          
O        O      0.203400000000     0.796200000000     0.522150000000     0          
O        O      0.128350000000     0.795950000000     0.559650000000     0          
O        O      0.047800000000     0.783200000000     0.586500000000     0          
O        O      0.118200000000     0.803150000000     0.622950000000     0          
O        O      0.166250000000     0.846500000000     0.651550000000     0          
O        O      0.202550000000     0.794650000000     0.649000000000     0          
O        O      0.250000000000     0.750200000000     0.625350000000     0          
O        O      0.250000000000     0.759600000000     0.688000000000     0          
O        O      0.250000000000     0.750000000000     0.750000000000     0          
O        O      0.250000000000     0.762000000000     0.562600000000     0          
O        O      0.250000000000     0.750000000000     0.500000000000     0          
O        O      0.193700000000     0.875000000000     0.599800000000     0          
O        O      0.250000000000     0.875000000000     0.548450000000     0          
O        O      0.250000000000     0.875000000000     0.650900000000     0          
T        Si     0.106300000000     0.782800000000     0.714500000000     0          
T        Si     0.156400000000     0.814450000000     0.532400000000     0          
T        Si     0.105100000000     0.782700000000     0.592350000000     0          
T        Si     0.152700000000     0.812250000000     0.652700000000     0          
T        Si     0.250000000000     0.775050000000     0.652950000000     0          
T        Si     0.250000000000     0.734300000000     0.715100000000     0          
T        Si     0.250000000000     0.775700000000     0.526600000000     0          
T        Si     0.250000000000     0.736400000000     0.589400000000     0          
T        Si     0.195100000000     0.875000000000     0.560800000000     0          
T        Si     0.194800000000     0.875000000000     0.638900000000     0          
O        O      0.121550000000     0.804150000000     0.812900000000     0          
O        O      0.201600000000     0.784850000000     0.787600000000     0          
O        O      0.125000000000     0.750000000000     0.792350000000     0          
O        O      0.080600000000     0.846100000000     0.953100000000     0          
O        O      0.046600000000     0.796200000000     0.977850000000     0          
O        O      0.121650000000     0.795950000000     0.940350000000     0          
O        O      0.202200000000     0.783200000000     0.913500000000     0          
O        O      0.125000000000     0.750000000000     0.902050000000     0          
O        O      0.131800000000     0.803150000000     0.877050000000     0          
O        O      0.083750000000     0.846500000000     0.848450000000     0          
O        O      0.047450000000     0.794650000000     0.851000000000     0          
O        O      0.000000000000     0.750200000000     0.874650000000     0          
O        O      0.000000000000     0.759600000000     0.812000000000     0          
O        O      0.000000000000     0.762000000000     0.937400000000     0          
O        O      0.056300000000     0.875000000000     0.900200000000     0          
O        O      0.000000000000     0.875000000000     0.951550000000     0          
O        O      0.000000000000     0.875000000000     0.849100000000     0          
T        Si     0.143700000000     0.782800000000     0.785500000000     0          
T        Si     0.093600000000     0.814450000000     0.967600000000     0          
T        Si     0.144900000000     0.782700000000     0.907650000000     0          
T        Si     0.097300000000     0.812250000000     0.847300000000     0          
T        Si     0.000000000000     0.775050000000     0.847050000000     0          
T        Si     0.000000000000     0.734300000000     0.784900000000     0          
T        Si     0.000000000000     0.775700000000     0.973400000000     0          
T        Si     0.000000000000     0.736400000000     0.910600000000     0          
T        Si     0.054900000000     0.875000000000     0.939200000000     0          
T        Si     0.055200000000     0.875000000000     0.861100000000     0          
O        O      0.128450000000     0.695850000000     0.812900000000     0          
O        O      0.048400000000     0.715150000000     0.787600000000     0          
O        O      0.169400000000     0.653900000000     0.953100000000     0          
O        O      0.203400000000     0.703800000000     0.977850000000     0          
O        O      0.128350000000     0.704050000000     0.940350000000     0          
O        O      0.047800000000     0.716800000000     0.913500000000     0          
O        O      0.118200000000     0.696850000000     0.877050000000     0          
O        O      0.166250000000     0.653500000000     0.848450000000     0          
O        O      0.202550000000     0.705350000000     0.851000000000     0          
O        O      0.250000000000     0.749800000000     0.874650000000     0          
O        O      0.250000000000     0.740400000000     0.812000000000     0          
O        O      0.250000000000     0.738000000000     0.937400000000     0          
O        O      0.193700000000     0.625000000000     0.900200000000     0          
O        O      0.250000000000     0.625000000000     0.951550000000     0          
O        O      0.250000000000     0.625000000000     0.849100000000     0          
T        Si     0.106300000000     0.717200000000     0.785500000000     0          
T        Si     0.156400000000     0.685550000000     0.967600000000     0          
T        Si     0.105100000000     0.717300000000     0.907650000000     0          
T        Si     0.152700000000     0.687750000000     0.847300000000     0          
T        Si     0.250000000000     0.724950000000     0.847050000000     0          
T        Si     0.250000000000     0.765700000000     0.784900000000     0          
T        Si     0.250000000000     0.724300000000     0.973400000000     0          
T        Si     0.250000000000     0.763600000000     0.910600000000     0          
T        Si     0.195100000000     0.625000000000     0.939200000000     0          
T        Si     0.194800000000     0.625000000000     0.861100000000     0          
O        O      0.375000000000     0.792550000000     0.750000000000     0          
O        O      0.378450000000     0.804150000000     0.812900000000     0          
O        O      0.298400000000     0.784850000000     0.787600000000     0          
O        O      0.375000000000     0.750000000000     0.792350000000     0          
O        O      0.375000000000     0.818800000000     0.500000000000     0          
O        O      0.419400000000     0.846100000000     0.953100000000     0          
O        O      0.453400000000     0.796200000000     0.977850000000     0          
O        O      0.378350000000     0.795950000000     0.940350000000     0          
O        O      0.297800000000     0.783200000000     0.913500000000     0          
O        O      0.375000000000     0.750000000000     0.902050000000     0          
O        O      0.368200000000     0.803150000000     0.877050000000     0          
O        O      0.416250000000     0.846500000000     0.848450000000     0          
O        O      0.452550000000     0.794650000000     0.851000000000     0          
O        O      0.443700000000     0.875000000000     0.900200000000     0          
T        Si     0.356300000000     0.782800000000     0.785500000000     0          
T        Si     0.406400000000     0.814450000000     0.967600000000     0          
T        Si     0.355100000000     0.782700000000     0.907650000000     0          
T        Si     0.402700000000     0.812250000000     0.847300000000     0          
T        Si     0.445100000000     0.875000000000     0.939200000000     0          
T        Si     0.444800000000     0.875000000000     0.861100000000     0          
O        O      0.375000000000     0.707450000000     0.750000000000     0          
O        O      0.371550000000     0.695850000000     0.812900000000     0          
O        O      0.451600000000     0.715150000000     0.787600000000     0          
O        O      0.375000000000     0.681200000000     0.500000000000     0          
O        O      0.330600000000     0.653900000000     0.953100000000     0          
O        O      0.296600000000     0.703800000000     0.977850000000     0          
O        O      0.371650000000     0.704050000000     0.940350000000     0          
O        O      0.452200000000     0.716800000000     0.913500000000     0          
O        O      0.381800000000     0.696850000000     0.877050000000     0          
O        O      0.333750000000     0.653500000000     0.848450000000     0          
O        O      0.297450000000     0.705350000000     0.851000000000     0          
O        O      0.306300000000     0.625000000000     0.900200000000     0          
T        Si     0.393700000000     0.717200000000     0.785500000000     0          
T        Si     0.343600000000     0.685550000000     0.967600000000     0          
T        Si     0.394900000000     0.717300000000     0.907650000000     0          
T        Si     0.347300000000     0.687750000000     0.847300000000     0          
T        Si     0.304900000000     0.625000000000     0.939200000000     0          
T        Si     0.305200000000     0.625000000000     0.861100000000     0          
O        O      0.378450000000     0.695850000000     0.687100000000     0          
O        O      0.298400000000     0.715150000000     0.712400000000     0          
O        O      0.375000000000     0.750000000000     0.707650000000     0          
O        O      0.419400000000     0.653900000000     0.546900000000     0          
O        O      0.453400000000     0.703800000000     0.522150000000     0          
O        O      0.378350000000     0.704050000000     0.559650000000     0          
O        O      0.297800000000     0.716800000000     0.586500000000     0          
O        O      0.375000000000     0.750000000000     0.597950000000     0          
O        O      0.368200000000     0.696850000000     0.622950000000     0          
O        O      0.416250000000     0.653500000000     0.651550000000     0          
O        O      0.452550000000     0.705350000000     0.649000000000     0          
O        O      0.443700000000     0.625000000000     0.599800000000     0          
T        Si     0.356300000000     0.717200000000     0.714500000000     0          
T        Si     0.406400000000     0.685550000000     0.532400000000     0          
T        Si     0.355100000000     0.717300000000     0.592350000000     0          
T        Si     0.402700000000     0.687750000000     0.652700000000     0          
T        Si     0.445100000000     0.625000000000     0.560800000000     0          
T        Si     0.444800000000     0.625000000000     0.638900000000     0          
O        O      0.371550000000     0.804150000000     0.687100000000     0          
O        O      0.451600000000     0.784850000000     0.712400000000     0          
O        O      0.330600000000     0.846100000000     0.546900000000     0          
O        O      0.296600000000     0.796200000000     0.522150000000     0          
O        O      0.371650000000     0.795950000000     0.559650000000     0          
O        O      0.452200000000     0.783200000000     0.586500000000     0          
O        O      0.381800000000     0.803150000000     0.622950000000     0          
O        O      0.333750000000     0.846500000000     0.651550000000     0          
O        O      0.297450000000     0.794650000000     0.649000000000     0          
O        O      0.306300000000     0.875000000000     0.599800000000     0          
T        Si     0.393700000000     0.782800000000     0.714500000000     0          
T        Si     0.343600000000     0.814450000000     0.532400000000     0          
T        Si     0.394900000000     0.782700000000     0.592350000000     0          
T        Si     0.347300000000     0.812250000000     0.652700000000     0          
T        Si     0.304900000000     0.875000000000     0.560800000000     0          
T        Si     0.305200000000     0.875000000000     0.638900000000     0          
O        O      0.375000000000     0.957450000000     0.750000000000     0          
O        O      0.371550000000     0.945850000000     0.687100000000     0          
O        O      0.451600000000     0.965150000000     0.712400000000     0          
O        O      0.375000000000     0.500000000000     0.707650000000     0          
O        O      0.375000000000     0.931200000000     0.500000000000     0          
O        O      0.330600000000     0.903900000000     0.546900000000     0          
O        O      0.296600000000     0.953800000000     0.522150000000     0          
O        O      0.371650000000     0.954050000000     0.559650000000     0          
O        O      0.452200000000     0.966800000000     0.586500000000     0          
O        O      0.375000000000     0.500000000000     0.597950000000     0          
O        O      0.381800000000     0.946850000000     0.622950000000     0          
O        O      0.333750000000     0.903500000000     0.651550000000     0          
O        O      0.297450000000     0.955350000000     0.649000000000     0          
O        O      0.250000000000     0.999800000000     0.625350000000     0          
O        O      0.250000000000     0.990400000000     0.688000000000     0          
O        O      0.250000000000     0.500000000000     0.750000000000     0          
O        O      0.250000000000     0.988000000000     0.562600000000     0          
O        O      0.250000000000     0.500000000000     0.500000000000     0          
T        Si     0.393700000000     0.967200000000     0.714500000000     0          
T        Si     0.343600000000     0.935550000000     0.532400000000     0          
T        Si     0.394900000000     0.967300000000     0.592350000000     0          
T        Si     0.347300000000     0.937750000000     0.652700000000     0          
T        Si     0.250000000000     0.974950000000     0.652950000000     0          
T        Si     0.250000000000     0.515700000000     0.715100000000     0          
T        Si     0.250000000000     0.974300000000     0.526600000000     0          
T        Si     0.250000000000     0.513600000000     0.589400000000     0          
O        O      0.375000000000     0.542550000000     0.750000000000     0          
O        O      0.378450000000     0.554150000000     0.687100000000     0          
O        O      0.298400000000     0.534850000000     0.712400000000     0          
O        O      0.375000000000     0.568800000000     0.500000000000     0          
O        O      0.419400000000     0.596100000000     0.546900000000     0          
O        O      0.453400000000     0.546200000000     0.522150000000     0          
O        O      0.378350000000     0.545950000000     0.559650000000     0          
O        O      0.297800000000     0.533200000000     0.586500000000     0          
O        O      0.368200000000     0.553150000000     0.622950000000     0          
O        O      0.416250000000     0.596500000000     0.651550000000     0          
O        O      0.452550000000     0.544650000000     0.649000000000     0          
O        O      0.000000000000     0.500200000000     0.625350000000     0          
O        O      0.000000000000     0.509600000000     0.688000000000     0          
O        O      0.000000000000     0.500000000000     0.750000000000     0          
O        O      0.000000000000     0.512000000000     0.562600000000     0          
O        O      0.000000000000     0.500000000000     0.500000000000     0          
T        Si     0.356300000000     0.532800000000     0.714500000000     0          
T        Si     0.406400000000     0.564450000000     0.532400000000     0          
T        Si     0.355100000000     0.532700000000     0.592350000000     0          
T        Si     0.402700000000     0.562250000000     0.652700000000     0          
T        Si     0.000000000000     0.525050000000     0.652950000000     0          
T        Si     0.000000000000     0.984300000000     0.715100000000     0          
T        Si     0.000000000000     0.525700000000     0.526600000000     0          
T        Si     0.000000000000     0.986400000000     0.589400000000     0          
O        O      0.371550000000     0.554150000000     0.812900000000     0          
O        O      0.451600000000     0.534850000000     0.787600000000     0          
O        O      0.375000000000     0.500000000000     0.792350000000     0          
O        O      0.330600000000     0.596100000000     0.953100000000     0          
O        O      0.296600000000     0.546200000000     0.977850000000     0          
O        O      0.371650000000     0.545950000000     0.940350000000     0          
O        O      0.452200000000     0.533200000000     0.913500000000     0          
O        O      0.375000000000     0.500000000000     0.902050000000     0          
O        O      0.381800000000     0.553150000000     0.877050000000     0          
O        O      0.333750000000     0.596500000000     0.848450000000     0          
O        O      0.297450000000     0.544650000000     0.851000000000     0          
O        O      0.250000000000     0.500200000000     0.874650000000     0          
O        O      0.250000000000     0.509600000000     0.812000000000     0          
O        O      0.250000000000     0.512000000000     0.937400000000     0          
T        Si     0.393700000000     0.532800000000     0.785500000000     0          
T        Si     0.343600000000     0.564450000000     0.967600000000     0          
T        Si     0.394900000000     0.532700000000     0.907650000000     0          
T        Si     0.347300000000     0.562250000000     0.847300000000     0          
T        Si     0.250000000000     0.525050000000     0.847050000000     0          
T        Si     0.250000000000     0.984300000000     0.784900000000     0          
T        Si     0.250000000000     0.525700000000     0.973400000000     0          
T        Si     0.250000000000     0.986400000000     0.910600000000     0          
O        O      0.378450000000     0.945850000000     0.812900000000     0          
O        O      0.298400000000     0.965150000000     0.787600000000     0          
O        O      0.419400000000     0.903900000000     0.953100000000     0          
O        O      0.453400000000     0.953800000000     0.977850000000     0          
O        O      0.378350000000     0.954050000000     0.940350000000     0          
O        O      0.297800000000     0.966800000000     0.913500000000     0          
O        O      0.368200000000     0.946850000000     0.877050000000     0          
O        O      0.416250000000     0.903500000000     0.848450000000     0          
O        O      0.452550000000     0.955350000000     0.851000000000     0          
O        O      0.000000000000     0.999800000000     0.874650000000     0          
O        O      0.000000000000     0.990400000000     0.812000000000     0          
O        O      0.000000000000     0.988000000000     0.937400000000     0          
T        Si     0.356300000000     0.967200000000     0.785500000000     0          
T        Si     0.406400000000     0.935550000000     0.967600000000     0          
T        Si     0.355100000000     0.967300000000     0.907650000000     0          
T        Si     0.402700000000     0.937750000000     0.847300000000     0          
T        Si     0.000000000000     0.974950000000     0.847050000000     0          
T        Si     0.000000000000     0.515700000000     0.784900000000     0          
T        Si     0.000000000000     0.974300000000     0.973400000000     0          
T        Si     0.000000000000     0.513600000000     0.910600000000     0          
O        O      0.125000000000     0.542550000000     0.750000000000     0          
O        O      0.128450000000     0.554150000000     0.812900000000     0          
O        O      0.048400000000     0.534850000000     0.787600000000     0          
O        O      0.125000000000     0.500000000000     0.792350000000     0          
O        O      0.125000000000     0.568800000000     0.500000000000     0          
O        O      0.169400000000     0.596100000000     0.953100000000     0          
O        O      0.203400000000     0.546200000000     0.977850000000     0          
O        O      0.128350000000     0.545950000000     0.940350000000     0          
O        O      0.047800000000     0.533200000000     0.913500000000     0          
O        O      0.125000000000     0.500000000000     0.902050000000     0          
O        O      0.118200000000     0.553150000000     0.877050000000     0          
O        O      0.166250000000     0.596500000000     0.848450000000     0          
O        O      0.202550000000     0.544650000000     0.851000000000     0          
T        Si     0.106300000000     0.532800000000     0.785500000000     0          
T        Si     0.156400000000     0.564450000000     0.967600000000     0          
T        Si     0.105100000000     0.532700000000     0.907650000000     0          
T        Si     0.152700000000     0.562250000000     0.847300000000     0          
O        O      0.125000000000     0.957450000000     0.750000000000     0          
O        O      0.121550000000     0.945850000000     0.812900000000     0          
O        O      0.201600000000     0.965150000000     0.787600000000     0          
O        O      0.125000000000     0.931200000000     0.500000000000     0          
O        O      0.080600000000     0.903900000000     0.953100000000     0          
O        O      0.046600000000     0.953800000000     0.977850000000     0          
O        O      0.121650000000     0.954050000000     0.940350000000     0          
O        O      0.202200000000     0.966800000000     0.913500000000     0          
O        O      0.131800000000     0.946850000000     0.877050000000     0          
O        O      0.083750000000     0.903500000000     0.848450000000     0          
O        O      0.047450000000     0.955350000000     0.851000000000     0          
T        Si     0.143700000000     0.967200000000     0.785500000000     0          
T        Si     0.093600000000     0.935550000000     0.967600000000     0          
T        Si     0.144900000000     0.967300000000     0.907650000000     0          
T        Si     0.097300000000     0.937750000000     0.847300000000     0          
O        O      0.128450000000     0.945850000000     0.687100000000     0          
O        O      0.048400000000     0.965150000000     0.712400000000     0          
O        O      0.125000000000     0.500000000000     0.707650000000     0          
O        O      0.169400000000     0.903900000000     0.546900000000     0          
O        O      0.203400000000     0.953800000000     0.522150000000     0          
O        O      0.128350000000     0.954050000000     0.559650000000     0          
O        O      0.047800000000     0.966800000000     0.586500000000     0          
O        O      0.125000000000     0.500000000000     0.597950000000     0          
O        O      0.118200000000     0.946850000000     0.622950000000     0          
O        O      0.166250000000     0.903500000000     0.651550000000     0          
O        O      0.202550000000     0.955350000000     0.649000000000     0          
T        Si     0.106300000000     0.967200000000     0.714500000000     0          
T        Si     0.156400000000     0.935550000000     0.532400000000     0          
T        Si     0.105100000000     0.967300000000     0.592350000000     0          
T        Si     0.152700000000     0.937750000000     0.652700000000     0          
O        O      0.121550000000     0.554150000000     0.687100000000     0          
O        O      0.201600000000     0.534850000000     0.712400000000     0          
O        O      0.080600000000     0.596100000000     0.546900000000     0          
O        O      0.046600000000     0.546200000000     0.522150000000     0          
O        O      0.121650000000     0.545950000000     0.559650000000     0          
O        O      0.202200000000     0.533200000000     0.586500000000     0          
O        O      0.131800000000     0.553150000000     0.622950000000     0          
O        O      0.083750000000     0.596500000000     0.651550000000     0          
O        O      0.047450000000     0.544650000000     0.649000000000     0          
T        Si     0.143700000000     0.532800000000     0.714500000000     0          
T        Si     0.093600000000     0.564450000000     0.532400000000     0          
T        Si     0.144900000000     0.532700000000     0.592350000000     0          
T        Si     0.097300000000     0.562250000000     0.652700000000     0          
O        O      0.625000000000     0.207450000000     0.250000000000     0          
O        O      0.621550000000     0.195850000000     0.187100000000     0          
O        O      0.701600000000     0.215150000000     0.212400000000     0          
O        O      0.625000000000     0.250000000000     0.207650000000     0          
O        O      0.625000000000     0.181200000000     0.000000000000     0          
O        O      0.580600000000     0.153900000000     0.046900000000     0          
O        O      0.546600000000     0.203800000000     0.022150000000     0          
O        O      0.621650000000     0.204050000000     0.059650000000     0          
O        O      0.702200000000     0.216800000000     0.086500000000     0          
O        O      0.625000000000     0.250000000000     0.097950000000     0          
O        O      0.631800000000     0.196850000000     0.122950000000     0          
O        O      0.583750000000     0.153500000000     0.151550000000     0          
O        O      0.547450000000     0.205350000000     0.149000000000     0          
O        O      0.500000000000     0.249800000000     0.125350000000     0          
O        O      0.500000000000     0.240400000000     0.188000000000     0          
O        O      0.500000000000     0.250000000000     0.250000000000     0          
O        O      0.500000000000     0.238000000000     0.062600000000     0          
O        O      0.500000000000     0.250000000000     0.000000000000     0          
O        O      0.556300000000     0.125000000000     0.099800000000     0          
O        O      0.500000000000     0.125000000000     0.048450000000     0          
O        O      0.500000000000     0.125000000000     0.150900000000     0          
T        Si     0.643700000000     0.217200000000     0.214500000000     0          
T        Si     0.593600000000     0.185550000000     0.032400000000     0          
T        Si     0.644900000000     0.217300000000     0.092350000000     0          
T        Si     0.597300000000     0.187750000000     0.152700000000     0          
T        Si     0.500000000000     0.224950000000     0.152950000000     0          
T        Si     0.500000000000     0.265700000000     0.215100000000     0          
T        Si     0.500000000000     0.224300000000     0.026600000000     0          
T        Si     0.500000000000     0.263600000000     0.089400000000     0          
T        Si     0.554900000000     0.125000000000     0.060800000000     0          
T        Si     0.555200000000     0.125000000000     0.138900000000     0          
O        O      0.625000000000     0.292550000000     0.250000000000     0          
O        O      0.628450000000     0.304150000000     0.187100000000     0          
O        O      0.548400000000     0.284850000000     0.212400000000     0          
O        O      0.625000000000     0.318800000000     0.000000000000     0          
O        O      0.669400000000     0.346100000000     0.046900000000     0          
O        O      0.703400000000     0.296200000000     0.022150000000     0          
O        O      0.628350000000     0.295950000000     0.059650000000     0          
O        O      0.547800000000     0.283200000000     0.086500000000     0          
O        O      0.618200000000     0.303150000000     0.122950000000     0          
O        O      0.666250000000     0.346500000000     0.151550000000     0          
O        O      0.702550000000     0.294650000000     0.149000000000     0          
O        O      0.750000000000     0.250200000000     0.125350000000     0          
O        O      0.750000000000     0.259600000000     0.188000000000     0          
O        O      0.750000000000     0.250000000000     0.250000000000     0          
O        O      0.750000000000     0.262000000000     0.062600000000     0          
O        O      0.750000000000     0.250000000000     0.000000000000     0          
O        O      0.693700000000     0.375000000000     0.099800000000     0          
O        O      0.750000000000     0.375000000000     0.048450000000     0          
O        O      0.750000000000     0.375000000000     0.150900000000     0          
T        Si     0.606300000000     0.282800000000     0.214500000000     0          
T        Si     0.656400000000     0.314450000000     0.032400000000     0          
T        Si     0.605100000000     0.282700000000     0.092350000000     0          
T        Si     0.652700000000     0.312250000000     0.152700000000     0          
T        Si     0.750000000000     0.275050000000     0.152950000000     0          
T        Si     0.750000000000     0.234300000000     0.215100000000     0          
T        Si     0.750000000000     0.275700000000     0.026600000000     0          
T        Si     0.750000000000     0.236400000000     0.089400000000     0          
T        Si     0.695100000000     0.375000000000     0.060800000000     0          
T        Si     0.694800000000     0.375000000000     0.138900000000     0          
O        O      0.621550000000     0.304150000000     0.312900000000     0          
O        O      0.701600000000     0.284850000000     0.287600000000     0          
O        O      0.625000000000     0.250000000000     0.292350000000     0          
O        O      0.580600000000     0.346100000000     0.453100000000     0          
O        O      0.546600000000     0.296200000000     0.477850000000     0          
O        O      0.621650000000     0.295950000000     0.440350000000     0          
O        O      0.702200000000     0.283200000000     0.413500000000     0          
O        O      0.625000000000     0.250000000000     0.402050000000     0          
O        O      0.631800000000     0.303150000000     0.377050000000     0          
O        O      0.583750000000     0.346500000000     0.348450000000     0          
O        O      0.547450000000     0.294650000000     0.351000000000     0          
O        O      0.500000000000     0.250200000000     0.374650000000     0          
O        O      0.500000000000     0.259600000000     0.312000000000     0          
O        O      0.500000000000     0.262000000000     0.437400000000     0          
O        O      0.556300000000     0.375000000000     0.400200000000     0          
O        O      0.500000000000     0.375000000000     0.451550000000     0          
O        O      0.500000000000     0.375000000000     0.349100000000     0          
T        Si     0.643700000000     0.282800000000     0.285500000000     0          
T        Si     0.593600000000     0.314450000000     0.467600000000     0          
T        Si     0.644900000000     0.282700000000     0.407650000000     0          
T        Si     0.597300000000     0.312250000000     0.347300000000     0          
T        Si     0.500000000000     0.275050000000     0.347050000000     0          
T        Si     0.500000000000     0.234300000000     0.284900000000     0          
T        Si     0.500000000000     0.275700000000     0.473400000000     0          
T        Si     0.500000000000     0.236400000000     0.410600000000     0          
T        Si     0.554900000000     0.375000000000     0.439200000000     0          
T        Si     0.555200000000     0.375000000000     0.361100000000     0          
O        O      0.628450000000     0.195850000000     0.312900000000     0          
O        O      0.548400000000     0.215150000000     0.287600000000     0          
O        O      0.669400000000     0.153900000000     0.453100000000     0          
O        O      0.703400000000     0.203800000000     0.477850000000     0          
O        O      0.628350000000     0.204050000000     0.440350000000     0          
O        O      0.547800000000     0.216800000000     0.413500000000     0          
O        O      0.618200000000     0.196850000000     0.377050000000     0          
O        O      0.666250000000     0.153500000000     0.348450000000     0          
O        O      0.702550000000     0.205350000000     0.351000000000     0          
O        O      0.750000000000     0.249800000000     0.374650000000     0          
O        O      0.750000000000     0.240400000000     0.312000000000     0          
O        O      0.750000000000     0.238000000000     0.437400000000     0          
O        O      0.693700000000     0.125000000000     0.400200000000     0          
O        O      0.750000000000     0.125000000000     0.451550000000     0          
O        O      0.750000000000     0.125000000000     0.349100000000     0          
T        Si     0.606300000000     0.217200000000     0.285500000000     0          
T        Si     0.656400000000     0.185550000000     0.467600000000     0          
T        Si     0.605100000000     0.217300000000     0.407650000000     0          
T        Si     0.652700000000     0.187750000000     0.347300000000     0          
T        Si     0.750000000000     0.224950000000     0.347050000000     0          
T        Si     0.750000000000     0.265700000000     0.284900000000     0          
T        Si     0.750000000000     0.224300000000     0.473400000000     0          
T        Si     0.750000000000     0.263600000000     0.410600000000     0          
T        Si     0.695100000000     0.125000000000     0.439200000000     0          
T        Si     0.694800000000     0.125000000000     0.361100000000     0          
O        O      0.875000000000     0.292550000000     0.250000000000     0          
O        O      0.878450000000     0.304150000000     0.312900000000     0          
O        O      0.798400000000     0.284850000000     0.287600000000     0          
O        O      0.875000000000     0.250000000000     0.292350000000     0          
O        O      0.875000000000     0.318800000000     0.000000000000     0          
O        O      0.919400000000     0.346100000000     0.453100000000     0          
O        O      0.953400000000     0.296200000000     0.477850000000     0          
O        O      0.878350000000     0.295950000000     0.440350000000     0          
O        O      0.797800000000     0.283200000000     0.413500000000     0          
O        O      0.875000000000     0.250000000000     0.402050000000     0          
O        O      0.868200000000     0.303150000000     0.377050000000     0          
O        O      0.916250000000     0.346500000000     0.348450000000     0          
O        O      0.952550000000     0.294650000000     0.351000000000     0          
O        O      0.943700000000     0.375000000000     0.400200000000     0          
T        Si     0.856300000000     0.282800000000     0.285500000000     0          
T        Si     0.906400000000     0.314450000000     0.467600000000     0          
T        Si     0.855100000000     0.282700000000     0.407650000000     0          
T        Si     0.902700000000     0.312250000000     0.347300000000     0          
T        Si     0.945100000000     0.375000000000     0.439200000000     0          
T        Si     0.944800000000     0.375000000000     0.361100000000     0          
O        O      0.875000000000     0.207450000000     0.250000000000     0          
O        O      0.871550000000     0.195850000000     0.312900000000     0          
O        O      0.951600000000     0.215150000000     0.287600000000     0          
O        O      0.875000000000     0.181200000000     0.000000000000     0          
O        O      0.830600000000     0.153900000000     0.453100000000     0          
O        O      0.796600000000     0.203800000000     0.477850000000     0          
O        O      0.871650000000     0.204050000000     0.440350000000     0          
O        O      0.952200000000     0.216800000000     0.413500000000     0          
O        O      0.881800000000     0.196850000000     0.377050000000     0          
O        O      0.833750000000     0.153500000000     0.348450000000     0          
O        O      0.797450000000     0.205350000000     0.351000000000     0          
O        O      0.806300000000     0.125000000000     0.400200000000     0          
T        Si     0.893700000000     0.217200000000     0.285500000000     0          
T        Si     0.843600000000     0.185550000000     0.467600000000     0          
T        Si     0.894900000000     0.217300000000     0.407650000000     0          
T        Si     0.847300000000     0.187750000000     0.347300000000     0          
T        Si     0.804900000000     0.125000000000     0.439200000000     0          
T        Si     0.805200000000     0.125000000000     0.361100000000     0          
O        O      0.878450000000     0.195850000000     0.187100000000     0          
O        O      0.798400000000     0.215150000000     0.212400000000     0          
O        O      0.875000000000     0.250000000000     0.207650000000     0          
O        O      0.919400000000     0.153900000000     0.046900000000     0          
O        O      0.953400000000     0.203800000000     0.022150000000     0          
O        O      0.878350000000     0.204050000000     0.059650000000     0          
O        O      0.797800000000     0.216800000000     0.086500000000     0          
O        O      0.875000000000     0.250000000000     0.097950000000     0          
O        O      0.868200000000     0.196850000000     0.122950000000     0          
O        O      0.916250000000     0.153500000000     0.151550000000     0          
O        O      0.952550000000     0.205350000000     0.149000000000     0          
O        O      0.943700000000     0.125000000000     0.099800000000     0          
T        Si     0.856300000000     0.217200000000     0.214500000000     0          
T        Si     0.906400000000     0.185550000000     0.032400000000     0          
T        Si     0.855100000000     0.217300000000     0.092350000000     0          
T        Si     0.902700000000     0.187750000000     0.152700000000     0          
T        Si     0.945100000000     0.125000000000     0.060800000000     0          
T        Si     0.944800000000     0.125000000000     0.138900000000     0          
O        O      0.871550000000     0.304150000000     0.187100000000     0          
O        O      0.951600000000     0.284850000000     0.212400000000     0          
O        O      0.830600000000     0.346100000000     0.046900000000     0          
O        O      0.796600000000     0.296200000000     0.022150000000     0          
O        O      0.871650000000     0.295950000000     0.059650000000     0          
O        O      0.952200000000     0.283200000000     0.086500000000     0          
O        O      0.881800000000     0.303150000000     0.122950000000     0          
O        O      0.833750000000     0.346500000000     0.151550000000     0          
O        O      0.797450000000     0.294650000000     0.149000000000     0          
O        O      0.806300000000     0.375000000000     0.099800000000     0          
T        Si     0.893700000000     0.282800000000     0.214500000000     0          
T        Si     0.843600000000     0.314450000000     0.032400000000     0          
T        Si     0.894900000000     0.282700000000     0.092350000000     0          
T        Si     0.847300000000     0.312250000000     0.152700000000     0          
T        Si     0.804900000000     0.375000000000     0.060800000000     0          
T        Si     0.805200000000     0.375000000000     0.138900000000     0          
O        O      0.875000000000     0.457450000000     0.250000000000     0          
O        O      0.871550000000     0.445850000000     0.187100000000     0          
O        O      0.951600000000     0.465150000000     0.212400000000     0          
O        O      0.875000000000     0.000000000000     0.207650000000     0          
O        O      0.875000000000     0.431200000000     0.000000000000     0          
O        O      0.830600000000     0.403900000000     0.046900000000     0          
O        O      0.796600000000     0.453800000000     0.022150000000     0          
O        O      0.871650000000     0.454050000000     0.059650000000     0          
O        O      0.952200000000     0.466800000000     0.086500000000     0          
O        O      0.875000000000     0.000000000000     0.097950000000     0          
O        O      0.881800000000     0.446850000000     0.122950000000     0          
O        O      0.833750000000     0.403500000000     0.151550000000     0          
O        O      0.797450000000     0.455350000000     0.149000000000     0          
O        O      0.750000000000     0.499800000000     0.125350000000     0          
O        O      0.750000000000     0.490400000000     0.188000000000     0          
O        O      0.750000000000     0.000000000000     0.250000000000     0          
O        O      0.750000000000     0.488000000000     0.062600000000     0          
O        O      0.750000000000     0.000000000000     0.000000000000     0          
T        Si     0.893700000000     0.467200000000     0.214500000000     0          
T        Si     0.843600000000     0.435550000000     0.032400000000     0          
T        Si     0.894900000000     0.467300000000     0.092350000000     0          
T        Si     0.847300000000     0.437750000000     0.152700000000     0          
T        Si     0.750000000000     0.474950000000     0.152950000000     0          
T        Si     0.750000000000     0.015700000000     0.215100000000     0          
T        Si     0.750000000000     0.474300000000     0.026600000000     0          
T        Si     0.750000000000     0.013600000000     0.089400000000     0          
O        O      0.875000000000     0.042550000000     0.250000000000     0          
O        O      0.878450000000     0.054150000000     0.187100000000     0          
O        O      0.798400000000     0.034850000000     0.212400000000     0          
O        O      0.875000000000     0.068800000000     0.000000000000     0          
O        O      0.919400000000     0.096100000000     0.046900000000     0          
O        O      0.953400000000     0.046200000000     0.022150000000     0          
O        O      0.878350000000     0.045950000000     0.059650000000     0          
O        O      0.797800000000     0.033200000000     0.086500000000     0          
O        O      0.868200000000     0.053150000000     0.122950000000     0          
O        O      0.916250000000     0.096500000000     0.151550000000     0          
O        O      0.952550000000     0.044650000000     0.149000000000     0          
O        O      0.500000000000     0.000200000000     0.125350000000     0          
O        O      0.500000000000     0.009600000000     0.188000000000     0          
O        O      0.500000000000     0.000000000000     0.250000000000     0          
O        O      0.500000000000     0.012000000000     0.062600000000     0          
O        O      0.500000000000     0.000000000000     0.000000000000     0          
T        Si     0.856300000000     0.032800000000     0.214500000000     0          
T        Si     0.906400000000     0.064450000000     0.032400000000     0          
T        Si     0.855100000000     0.032700000000     0.092350000000     0          
T        Si     0.902700000000     0.062250000000     0.152700000000     0          
T        Si     0.500000000000     0.025050000000     0.152950000000     0          
T        Si     0.500000000000     0.484300000000     0.215100000000     0          
T        Si     0.500000000000     0.025700000000     0.026600000000     0          
T        Si     0.500000000000     0.486400000000     0.089400000000     0          
O        O      0.871550000000     0.054150000000     0.312900000000     0          
O        O      0.951600000000     0.034850000000     0.287600000000     0          
O        O      0.875000000000     0.000000000000     0.292350000000     0          
O        O      0.830600000000     0.096100000000     0.453100000000     0          
O        O      0.796600000000     0.046200000000     0.477850000000     0          
O        O      0.871650000000     0.045950000000     0.440350000000     0          
O        O      0.952200000000     0.033200000000     0.413500000000     0          
O        O      0.875000000000     0.000000000000     0.402050000000     0          
O        O      0.881800000000     0.053150000000     0.377050000000     0          
O        O      0.833750000000     0.096500000000     0.348450000000     0          
O        O      0.797450000000     0.044650000000     0.351000000000     0          
O        O      0.750000000000     0.000200000000     0.374650000000     0          
O        O      0.750000000000     0.009600000000     0.312000000000     0          
O        O      0.750000000000     0.012000000000     0.437400000000     0          
T        Si     0.893700000000     0.032800000000     0.285500000000     0          
T        Si     0.843600000000     0.064450000000     0.467600000000     0          
T        Si     0.894900000000     0.032700000000     0.407650000000     0          
T        Si     0.847300000000     0.062250000000     0.347300000000     0          
T        Si     0.750000000000     0.025050000000     0.347050000000     0          
T        Si     0.750000000000     0.484300000000     0.284900000000     0          
T        Si     0.750000000000     0.025700000000     0.473400000000     0          
T        Si     0.750000000000     0.486400000000     0.410600000000     0          
O        O      0.878450000000     0.445850000000     0.312900000000     0          
O        O      0.798400000000     0.465150000000     0.287600000000     0          
O        O      0.919400000000     0.403900000000     0.453100000000     0          
O        O      0.953400000000     0.453800000000     0.477850000000     0          
O        O      0.878350000000     0.454050000000     0.440350000000     0          
O        O      0.797800000000     0.466800000000     0.413500000000     0          
O        O      0.868200000000     0.446850000000     0.377050000000     0          
O        O      0.916250000000     0.403500000000     0.348450000000     0          
O        O      0.952550000000     0.455350000000     0.351000000000     0          
O        O      0.500000000000     0.499800000000     0.374650000000     0          
O        O      0.500000000000     0.490400000000     0.312000000000     0          
O        O      0.500000000000     0.488000000000     0.437400000000     0          
T        Si     0.856300000000     0.467200000000     0.285500000000     0          
T        Si     0.906400000000     0.435550000000     0.467600000000     0          
T        Si     0.855100000000     0.467300000000     0.407650000000     0          
T        Si     0.902700000000     0.437750000000     0.347300000000     0          
T        Si     0.500000000000     0.474950000000     0.347050000000     0          
T        Si     0.500000000000     0.015700000000     0.284900000000     0          
T        Si     0.500000000000     0.474300000000     0.473400000000     0          
T        Si     0.500000000000     0.013600000000     0.410600000000     0          
O        O      0.625000000000     0.042550000000     0.250000000000     0          
O        O      0.628450000000     0.054150000000     0.312900000000     0          
O        O      0.548400000000     0.034850000000     0.287600000000     0          
O        O      0.625000000000     0.000000000000     0.292350000000     0          
O        O      0.625000000000     0.068800000000     0.000000000000     0          
O        O      0.669400000000     0.096100000000     0.453100000000     0          
O        O      0.703400000000     0.046200000000     0.477850000000     0          
O        O      0.628350000000     0.045950000000     0.440350000000     0          
O        O      0.547800000000     0.033200000000     0.413500000000     0          
O        O      0.625000000000     0.000000000000     0.402050000000     0          
O        O      0.618200000000     0.053150000000     0.377050000000     0          
O        O      0.666250000000     0.096500000000     0.348450000000     0          
O        O      0.702550000000     0.044650000000     0.351000000000     0          
T        Si     0.606300000000     0.032800000000     0.285500000000     0          
T        Si     0.656400000000     0.064450000000     0.467600000000     0          
T        Si     0.605100000000     0.032700000000     0.407650000000     0          
T        Si     0.652700000000     0.062250000000     0.347300000000     0          
O        O      0.625000000000     0.457450000000     0.250000000000     0          
O        O      0.621550000000     0.445850000000     0.312900000000     0          
O        O      0.701600000000     0.465150000000     0.287600000000     0          
O        O      0.625000000000     0.431200000000     0.000000000000     0          
O        O      0.580600000000     0.403900000000     0.453100000000     0          
O        O      0.546600000000     0.453800000000     0.477850000000     0          
O        O      0.621650000000     0.454050000000     0.440350000000     0          
O        O      0.702200000000     0.466800000000     0.413500000000     0          
O        O      0.631800000000     0.446850000000     0.377050000000     0          
O        O      0.583750000000     0.403500000000     0.348450000000     0          
O        O      0.547450000000     0.455350000000     0.351000000000     0          
T        Si     0.643700000000     0.467200000000     0.285500000000     0          
T        Si     0.593600000000     0.435550000000     0.467600000000     0          
T        Si     0.644900000000     0.467300000000     0.407650000000     0          
T        Si     0.597300000000     0.437750000000     0.347300000000     0          
O        O      0.628450000000     0.445850000000     0.187100000000     0          
O        O      0.548400000000     0.465150000000     0.212400000000     0          
O        O      0.625000000000     0.000000000000     0.207650000000     0          
O        O      0.669400000000     0.403900000000     0.046900000000     0          
O        O      0.703400000000     0.453800000000     0.022150000000     0          
O        O      0.628350000000     0.454050000000     0.059650000000     0          
O        O      0.547800000000     0.466800000000     0.086500000000     0          
O        O      0.625000000000     0.000000000000     0.097950000000     0          
O        O      0.618200000000     0.446850000000     0.122950000000     0          
O        O      0.666250000000     0.403500000000     0.151550000000     0          
O        O      0.702550000000     0.455350000000     0.149000000000     0          
T        Si     0.606300000000     0.467200000000     0.214500000000     0          
T        Si     0.656400000000     0.435550000000     0.032400000000     0          
T        Si     0.605100000000     0.467300000000     0.092350000000     0          
T        Si     0.652700000000     0.437750000000     0.152700000000     0          
O        O      0.621550000000     0.054150000000     0.187100000000     0          
O        O      0.701600000000     0.034850000000     0.212400000000     0          
O        O      0.580600000000     0.096100000000     0.046900000000     0          
O        O      0.546600000000     0.046200000000     0.022150000000     0          
O        O      0.621650000000     0.045950000000     0.059650000000     0          
O        O      0.702200000000     0.033200000000     0.086500000000     0          
O        O      0.631800000000     0.053150000000     0.122950000000     0          
O        O      0.583750000000     0.096500000000     0.151550000000     0          
O        O      0.547450000000     0.044650000000     0.149000000000     0          
T        Si     0.643700000000     0.032800000000     0.214500000000     0          
T        Si     0.593600000000     0.064450000000     0.032400000000     0          
T        Si     0.644900000000     0.032700000000     0.092350000000     0          
T        Si     0.597300000000     0.062250000000     0.152700000000     0          
O        O      0.625000000000     0.207450000000     0.750000000000     0          
O        O      0.621550000000     0.195850000000     0.687100000000     0          
O        O      0.701600000000     0.215150000000     0.712400000000     0          
O        O      0.625000000000     0.250000000000     0.707650000000     0          
O        O      0.625000000000     0.181200000000     0.500000000000     0          
O        O      0.580600000000     0.153900000000     0.546900000000     0          
O        O      0.546600000000     0.203800000000     0.522150000000     0          
O        O      0.621650000000     0.204050000000     0.559650000000     0          
O        O      0.702200000000     0.216800000000     0.586500000000     0          
O        O      0.625000000000     0.250000000000     0.597950000000     0          
O        O      0.631800000000     0.196850000000     0.622950000000     0          
O        O      0.583750000000     0.153500000000     0.651550000000     0          
O        O      0.547450000000     0.205350000000     0.649000000000     0          
O        O      0.500000000000     0.249800000000     0.625350000000     0          
O        O      0.500000000000     0.240400000000     0.688000000000     0          
O        O      0.500000000000     0.250000000000     0.750000000000     0          
O        O      0.500000000000     0.238000000000     0.562600000000     0          
O        O      0.500000000000     0.250000000000     0.500000000000     0          
O        O      0.556300000000     0.125000000000     0.599800000000     0          
O        O      0.500000000000     0.125000000000     0.548450000000     0          
O        O      0.500000000000     0.125000000000     0.650900000000     0          
T        Si     0.643700000000     0.217200000000     0.714500000000     0          
T        Si     0.593600000000     0.185550000000     0.532400000000     0          
T        Si     0.644900000000     0.217300000000     0.592350000000     0          
T        Si     0.597300000000     0.187750000000     0.652700000000     0          
T        Si     0.500000000000     0.224950000000     0.652950000000     0          
T        Si     0.500000000000     0.265700000000     0.715100000000     0          
T        Si     0.500000000000     0.224300000000     0.526600000000     0          
T        Si     0.500000000000     0.263600000000     0.589400000000     0          
T        Si     0.554900000000     0.125000000000     0.560800000000     0          
T        Si     0.555200000000     0.125000000000     0.638900000000     0          
O        O      0.625000000000     0.292550000000     0.750000000000     0          
O        O      0.628450000000     0.304150000000     0.687100000000     0          
O        O      0.548400000000     0.284850000000     0.712400000000     0          
O        O      0.625000000000     0.318800000000     0.500000000000     0          
O        O      0.669400000000     0.346100000000     0.546900000000     0          
O        O      0.703400000000     0.296200000000     0.522150000000     0          
O        O      0.628350000000     0.295950000000     0.559650000000     0          
O        O      0.547800000000     0.283200000000     0.586500000000     0          
O        O      0.618200000000     0.303150000000     0.622950000000     0          
O        O      0.666250000000     0.346500000000     0.651550000000     0          
O        O      0.702550000000     0.294650000000     0.649000000000     0          
O        O      0.750000000000     0.250200000000     0.625350000000     0          
O        O      0.750000000000     0.259600000000     0.688000000000     0          
O        O      0.750000000000     0.250000000000     0.750000000000     0          
O        O      0.750000000000     0.262000000000     0.562600000000     0          
O        O      0.750000000000     0.250000000000     0.500000000000     0          
O        O      0.693700000000     0.375000000000     0.599800000000     0          
O        O      0.750000000000     0.375000000000     0.548450000000     0          
O        O      0.750000000000     0.375000000000     0.650900000000     0          
T        Si     0.606300000000     0.282800000000     0.714500000000     0          
T        Si     0.656400000000     0.314450000000     0.532400000000     0          
T        Si     0.605100000000     0.282700000000     0.592350000000     0          
T        Si     0.652700000000     0.312250000000     0.652700000000     0          
T        Si     0.750000000000     0.275050000000     0.652950000000     0          
T        Si     0.750000000000     0.234300000000     0.715100000000     0          
T        Si     0.750000000000     0.275700000000     0.526600000000     0          
T        Si     0.750000000000     0.236400000000     0.589400000000     0          
T        Si     0.695100000000     0.375000000000     0.560800000000     0          
T        Si     0.694800000000     0.375000000000     0.638900000000     0          
O        O      0.621550000000     0.304150000000     0.812900000000     0          
O        O      0.701600000000     0.284850000000     0.787600000000     0          
O        O      0.625000000000     0.250000000000     0.792350000000     0          
O        O      0.580600000000     0.346100000000     0.953100000000     0          
O        O      0.546600000000     0.296200000000     0.977850000000     0          
O        O      0.621650000000     0.295950000000     0.940350000000     0          
O        O      0.702200000000     0.283200000000     0.913500000000     0          
O        O      0.625000000000     0.250000000000     0.902050000000     0          
O        O      0.631800000000     0.303150000000     0.877050000000     0          
O        O      0.583750000000     0.346500000000     0.848450000000     0          
O        O      0.547450000000     0.294650000000     0.851000000000     0          
O        O      0.500000000000     0.250200000000     0.874650000000     0          
O        O      0.500000000000     0.259600000000     0.812000000000     0          
O        O      0.500000000000     0.262000000000     0.937400000000     0          
O        O      0.556300000000     0.375000000000     0.900200000000     0          
O        O      0.500000000000     0.375000000000     0.951550000000     0          
O        O      0.500000000000     0.375000000000     0.849100000000     0          
T        Si     0.643700000000     0.282800000000     0.785500000000     0          
T        Si     0.593600000000     0.314450000000     0.967600000000     0          
T        Si     0.644900000000     0.282700000000     0.907650000000     0          
T        Si     0.597300000000     0.312250000000     0.847300000000     0          
T        Si     0.500000000000     0.275050000000     0.847050000000     0          
T        Si     0.500000000000     0.234300000000     0.784900000000     0          
T        Si     0.500000000000     0.275700000000     0.973400000000     0          
T        Si     0.500000000000     0.236400000000     0.910600000000     0          
T        Si     0.554900000000     0.375000000000     0.939200000000     0          
T        Si     0.555200000000     0.375000000000     0.861100000000     0          
O        O      0.628450000000     0.195850000000     0.812900000000     0          
O        O      0.548400000000     0.215150000000     0.787600000000     0          
O        O      0.669400000000     0.153900000000     0.953100000000     0          
O        O      0.703400000000     0.203800000000     0.977850000000     0          
O        O      0.628350000000     0.204050000000     0.940350000000     0          
O        O      0.547800000000     0.216800000000     0.913500000000     0          
O        O      0.618200000000     0.196850000000     0.877050000000     0          
O        O      0.666250000000     0.153500000000     0.848450000000     0          
O        O      0.702550000000     0.205350000000     0.851000000000     0          
O        O      0.750000000000     0.249800000000     0.874650000000     0          
O        O      0.750000000000     0.240400000000     0.812000000000     0          
O        O      0.750000000000     0.238000000000     0.937400000000     0          
O        O      0.693700000000     0.125000000000     0.900200000000     0          
O        O      0.750000000000     0.125000000000     0.951550000000     0          
O        O      0.750000000000     0.125000000000     0.849100000000     0          
T        Si     0.606300000000     0.217200000000     0.785500000000     0          
T        Si     0.656400000000     0.185550000000     0.967600000000     0          
T        Si     0.605100000000     0.217300000000     0.907650000000     0          
T        Si     0.652700000000     0.187750000000     0.847300000000     0          
T        Si     0.750000000000     0.224950000000     0.847050000000     0          
T        Si     0.750000000000     0.265700000000     0.784900000000     0          
T        Si     0.750000000000     0.224300000000     0.973400000000     0          
T        Si     0.750000000000     0.263600000000     0.910600000000     0          
T        Si     0.695100000000     0.125000000000     0.939200000000     0          
T        Si     0.694800000000     0.125000000000     0.861100000000     0          
O        O      0.875000000000     0.292550000000     0.750000000000     0          
O        O      0.878450000000     0.304150000000     0.812900000000     0          
O        O      0.798400000000     0.284850000000     0.787600000000     0          
O        O      0.875000000000     0.250000000000     0.792350000000     0          
O        O      0.875000000000     0.318800000000     0.500000000000     0          
O        O      0.919400000000     0.346100000000     0.953100000000     0          
O        O      0.953400000000     0.296200000000     0.977850000000     0          
O        O      0.878350000000     0.295950000000     0.940350000000     0          
O        O      0.797800000000     0.283200000000     0.913500000000     0          
O        O      0.875000000000     0.250000000000     0.902050000000     0          
O        O      0.868200000000     0.303150000000     0.877050000000     0          
O        O      0.916250000000     0.346500000000     0.848450000000     0          
O        O      0.952550000000     0.294650000000     0.851000000000     0          
O        O      0.943700000000     0.375000000000     0.900200000000     0          
T        Si     0.856300000000     0.282800000000     0.785500000000     0          
T        Si     0.906400000000     0.314450000000     0.967600000000     0          
T        Si     0.855100000000     0.282700000000     0.907650000000     0          
T        Si     0.902700000000     0.312250000000     0.847300000000     0          
T        Si     0.945100000000     0.375000000000     0.939200000000     0          
T        Si     0.944800000000     0.375000000000     0.861100000000     0          
O        O      0.875000000000     0.207450000000     0.750000000000     0          
O        O      0.871550000000     0.195850000000     0.812900000000     0          
O        O      0.951600000000     0.215150000000     0.787600000000     0          
O        O      0.875000000000     0.181200000000     0.500000000000     0          
O        O      0.830600000000     0.153900000000     0.953100000000     0          
O        O      0.796600000000     0.203800000000     0.977850000000     0          
O        O      0.871650000000     0.204050000000     0.940350000000     0          
O        O      0.952200000000     0.216800000000     0.913500000000     0          
O        O      0.881800000000     0.196850000000     0.877050000000     0          
O        O      0.833750000000     0.153500000000     0.848450000000     0          
O        O      0.797450000000     0.205350000000     0.851000000000     0          
O        O      0.806300000000     0.125000000000     0.900200000000     0          
T        Si     0.893700000000     0.217200000000     0.785500000000     0          
T        Si     0.843600000000     0.185550000000     0.967600000000     0          
T        Si     0.894900000000     0.217300000000     0.907650000000     0          
T        Si     0.847300000000     0.187750000000     0.847300000000     0          
T        Si     0.804900000000     0.125000000000     0.939200000000     0          
T        Si     0.805200000000     0.125000000000     0.861100000000     0          
O        O      0.878450000000     0.195850000000     0.687100000000     0          
O        O      0.798400000000     0.215150000000     0.712400000000     0          
O        O      0.875000000000     0.250000000000     0.707650000000     0          
O        O      0.919400000000     0.153900000000     0.546900000000     0          
O        O      0.953400000000     0.203800000000     0.522150000000     0          
O        O      0.878350000000     0.204050000000     0.559650000000     0          
O        O      0.797800000000     0.216800000000     0.586500000000     0          
O        O      0.875000000000     0.250000000000     0.597950000000     0          
O        O      0.868200000000     0.196850000000     0.622950000000     0          
O        O      0.916250000000     0.153500000000     0.651550000000     0          
O        O      0.952550000000     0.205350000000     0.649000000000     0          
O        O      0.943700000000     0.125000000000     0.599800000000     0          
T        Si     0.856300000000     0.217200000000     0.714500000000     0          
T        Si     0.906400000000     0.185550000000     0.532400000000     0          
T        Si     0.855100000000     0.217300000000     0.592350000000     0          
T        Si     0.902700000000     0.187750000000     0.652700000000     0          
T        Si     0.945100000000     0.125000000000     0.560800000000     0          
T        Si     0.944800000000     0.125000000000     0.638900000000     0          
O        O      0.871550000000     0.304150000000     0.687100000000     0          
O        O      0.951600000000     0.284850000000     0.712400000000     0          
O        O      0.830600000000     0.346100000000     0.546900000000     0          
O        O      0.796600000000     0.296200000000     0.522150000000     0          
O        O      0.871650000000     0.295950000000     0.559650000000     0          
O        O      0.952200000000     0.283200000000     0.586500000000     0          
O        O      0.881800000000     0.303150000000     0.622950000000     0          
O        O      0.833750000000     0.346500000000     0.651550000000     0          
O        O      0.797450000000     0.294650000000     0.649000000000     0          
O        O      0.806300000000     0.375000000000     0.599800000000     0          
T        Si     0.893700000000     0.282800000000     0.714500000000     0          
T        Si     0.843600000000     0.314450000000     0.532400000000     0          
T        Si     0.894900000000     0.282700000000     0.592350000000     0          
T        Si     0.847300000000     0.312250000000     0.652700000000     0          
T        Si     0.804900000000     0.375000000000     0.560800000000     0          
T        Si     0.805200000000     0.375000000000     0.638900000000     0          
O        O      0.875000000000     0.457450000000     0.750000000000     0          
O        O      0.871550000000     0.445850000000     0.687100000000     0          
O        O      0.951600000000     0.465150000000     0.712400000000     0          
O        O      0.875000000000     0.000000000000     0.707650000000     0          
O        O      0.875000000000     0.431200000000     0.500000000000     0          
O        O      0.830600000000     0.403900000000     0.546900000000     0          
O        O      0.796600000000     0.453800000000     0.522150000000     0          
O        O      0.871650000000     0.454050000000     0.559650000000     0          
O        O      0.952200000000     0.466800000000     0.586500000000     0          
O        O      0.875000000000     0.000000000000     0.597950000000     0          
O        O      0.881800000000     0.446850000000     0.622950000000     0          
O        O      0.833750000000     0.403500000000     0.651550000000     0          
O        O      0.797450000000     0.455350000000     0.649000000000     0          
O        O      0.750000000000     0.499800000000     0.625350000000     0          
O        O      0.750000000000     0.490400000000     0.688000000000     0          
O        O      0.750000000000     0.000000000000     0.750000000000     0          
O        O      0.750000000000     0.488000000000     0.562600000000     0          
O        O      0.750000000000     0.000000000000     0.500000000000     0          
T        Si     0.893700000000     0.467200000000     0.714500000000     0          
T        Si     0.843600000000     0.435550000000     0.532400000000     0          
T        Si     0.894900000000     0.467300000000     0.592350000000     0          
T        Si     0.847300000000     0.437750000000     0.652700000000     0          
T        Si     0.750000000000     0.474950000000     0.652950000000     0          
T        Si     0.750000000000     0.015700000000     0.715100000000     0          
T        Si     0.750000000000     0.474300000000     0.526600000000     0          
T        Si     0.750000000000     0.013600000000     0.589400000000     0          
O        O      0.875000000000     0.042550000000     0.750000000000     0          
O        O      0.878450000000     0.054150000000     0.687100000000     0          
O        O      0.798400000000     0.034850000000     0.712400000000     0          
O        O      0.875000000000     0.068800000000     0.500000000000     0          
O        O      0.919400000000     0.096100000000     0.546900000000     0          
O        O      0.953400000000     0.046200000000     0.522150000000     0          
O        O      0.878350000000     0.045950000000     0.559650000000     0          
O        O      0.797800000000     0.033200000000     0.586500000000     0          
O        O      0.868200000000     0.053150000000     0.622950000000     0          
O        O      0.916250000000     0.096500000000     0.651550000000     0          
O        O      0.952550000000     0.044650000000     0.649000000000     0          
O        O      0.500000000000     0.000200000000     0.625350000000     0          
O        O      0.500000000000     0.009600000000     0.688000000000     0          
O        O      0.500000000000     0.000000000000     0.750000000000     0          
O        O      0.500000000000     0.012000000000     0.562600000000     0          
O        O      0.500000000000     0.000000000000     0.500000000000     0          
T        Si     0.856300000000     0.032800000000     0.714500000000     0          
T        Si     0.906400000000     0.064450000000     0.532400000000     0          
T        Si     0.855100000000     0.032700000000     0.592350000000     0          
T        Si     0.902700000000     0.062250000000     0.652700000000     0          
T        Si     0.500000000000     0.025050000000     0.652950000000     0          
T        Si     0.500000000000     0.484300000000     0.715100000000     0          
T        Si     0.500000000000     0.025700000000     0.526600000000     0          
T        Si     0.500000000000     0.486400000000     0.589400000000     0          
O        O      0.871550000000     0.054150000000     0.812900000000     0          
O        O      0.951600000000     0.034850000000     0.787600000000     0          
O        O      0.875000000000     0.000000000000     0.792350000000     0          
O        O      0.830600000000     0.096100000000     0.953100000000     0          
O        O      0.796600000000     0.046200000000     0.977850000000     0          
O        O      0.871650000000     0.045950000000     0.940350000000     0          
O        O      0.952200000000     0.033200000000     0.913500000000     0          
O        O      0.875000000000     0.000000000000     0.902050000000     0          
O        O      0.881800000000     0.053150000000     0.877050000000     0          
O        O      0.833750000000     0.096500000000     0.848450000000     0          
O        O      0.797450000000     0.044650000000     0.851000000000     0          
O        O      0.750000000000     0.000200000000     0.874650000000     0          
O        O      0.750000000000     0.009600000000     0.812000000000     0          
O        O      0.750000000000     0.012000000000     0.937400000000     0          
T        Si     0.893700000000     0.032800000000     0.785500000000     0          
T        Si     0.843600000000     0.064450000000     0.967600000000     0          
T        Si     0.894900000000     0.032700000000     0.907650000000     0          
T        Si     0.847300000000     0.062250000000     0.847300000000     0          
T        Si     0.750000000000     0.025050000000     0.847050000000     0          
T        Si     0.750000000000     0.484300000000     0.784900000000     0          
T        Si     0.750000000000     0.025700000000     0.973400000000     0          
T        Si     0.750000000000     0.486400000000     0.910600000000     0          
O        O      0.878450000000     0.445850000000     0.812900000000     0          
O        O      0.798400000000     0.465150000000     0.787600000000     0          
O        O      0.919400000000     0.403900000000     0.953100000000     0          
O        O      0.953400000000     0.453800000000     0.977850000000     0          
O        O      0.878350000000     0.454050000000     0.940350000000     0          
O        O      0.797800000000     0.466800000000     0.913500000000     0          
O        O      0.868200000000     0.446850000000     0.877050000000     0          
O        O      0.916250000000     0.403500000000     0.848450000000     0          
O        O      0.952550000000     0.455350000000     0.851000000000     0          
O        O      0.500000000000     0.499800000000     0.874650000000     0          
O        O      0.500000000000     0.490400000000     0.812000000000     0          
O        O      0.500000000000     0.488000000000     0.937400000000     0          
T        Si     0.856300000000     0.467200000000     0.785500000000     0          
T        Si     0.906400000000     0.435550000000     0.967600000000     0          
T        Si     0.855100000000     0.467300000000     0.907650000000     0          
T        Si     0.902700000000     0.437750000000     0.847300000000     0          
T        Si     0.500000000000     0.474950000000     0.847050000000     0          
T        Si     0.500000000000     0.015700000000     0.784900000000     0          
T        Si     0.500000000000     0.474300000000     0.973400000000     0          
T        Si     0.500000000000     0.013600000000     0.910600000000     0          
O        O      0.625000000000     0.042550000000     0.750000000000     0          
O        O      0.628450000000     0.054150000000     0.812900000000     0          
O        O      0.548400000000     0.034850000000     0.787600000000     0          
O        O      0.625000000000     0.000000000000     0.792350000000     0          
O        O      0.625000000000     0.068800000000     0.500000000000     0          
O        O      0.669400000000     0.096100000000     0.953100000000     0          
O        O      0.703400000000     0.046200000000     0.977850000000     0          
O        O      0.628350000000     0.045950000000     0.940350000000     0          
O        O      0.547800000000     0.033200000000     0.913500000000     0          
O        O      0.625000000000     0.000000000000     0.902050000000     0          
O        O      0.618200000000     0.053150000000     0.877050000000     0          
O        O      0.666250000000     0.096500000000     0.848450000000     0          
O        O      0.702550000000     0.044650000000     0.851000000000     0          
T        Si     0.606300000000     0.032800000000     0.785500000000     0          
T        Si     0.656400000000     0.064450000000     0.967600000000     0          
T        Si     0.605100000000     0.032700000000     0.907650000000     0          
T        Si     0.652700000000     0.062250000000     0.847300000000     0          
O        O      0.625000000000     0.457450000000     0.750000000000     0          
O        O      0.621550000000     0.445850000000     0.812900000000     0          
O        O      0.701600000000     0.465150000000     0.787600000000     0          
O        O      0.625000000000     0.431200000000     0.500000000000     0          
O        O      0.580600000000     0.403900000000     0.953100000000     0          
O        O      0.546600000000     0.453800000000     0.977850000000     0          
O        O      0.621650000000     0.454050000000     0.940350000000     0          
O        O      0.702200000000     0.466800000000     0.913500000000     0          
O        O      0.631800000000     0.446850000000     0.877050000000     0          
O        O      0.583750000000     0.403500000000     0.848450000000     0          
O        O      0.547450000000     0.455350000000     0.851000000000     0          
T        Si     0.643700000000     0.467200000000     0.785500000000     0          
T        Si     0.593600000000     0.435550000000     0.967600000000     0          
T        Si     0.644900000000     0.467300000000     0.907650000000     0          
T        Si     0.597300000000     0.437750000000     0.847300000000     0          
O        O      0.628450000000     0.445850000000     0.687100000000     0          
O        O      0.548400000000     0.465150000000     0.712400000000     0          
O        O      0.625000000000     0.000000000000     0.707650000000     0          
O        O      0.669400000000     0.403900000000     0.546900000000     0          
O        O      0.703400000000     0.453800000000     0.522150000000     0          
O        O      0.628350000000     0.454050000000     0.559650000000     0          
O        O      0.547800000000     0.466800000000     0.586500000000     0          
O        O      0.625000000000     0.000000000000     0.597950000000     0          
O        O      0.618200000000     0.446850000000     0.622950000000     0          
O        O      0.666250000000     0.403500000000     0.651550000000     0          
O        O      0.702550000000     0.455350000000     0.649000000000     0          
T        Si     0.606300000000     0.467200000000     0.714500000000     0          
T        Si     0.656400000000     0.435550000000     0.532400000000     0          
T        Si     0.605100000000     0.467300000000     0.592350000000     0          
T        Si     0.652700000000     0.437750000000     0.652700000000     0          
O        O      0.621550000000     0.054150000000     0.687100000000     0          
O        O      0.701600000000     0.034850000000     0.712400000000     0          
O        O      0.580600000000     0.096100000000     0.546900000000     0          
O        O      0.546600000000     0.046200000000     0.522150000000     0          
O        O      0.621650000000     0.045950000000     0.559650000000     0          
O        O      0.702200000000     0.033200000000     0.586500000000     0          
O        O      0.631800000000     0.053150000000     0.622950000000     0          
O        O      0.583750000000     0.096500000000     0.651550000000     0          
O        O      0.547450000000     0.044650000000     0.649000000000     0          
T        Si     0.643700000000     0.032800000000     0.714500000000     0          
T        Si     0.593600000000     0.064450000000     0.532400000000     0          
T        Si     0.644900000000     0.032700000000     0.592350000000     0          
T        Si     0.597300000000     0.062250000000     0.652700000000     0          
O        O      0.625000000000     0.707450000000     0.250000000000     0          
O        O      0.621550000000     0.695850000000     0.187100000000     0          
O        O      0.701600000000     0.715150000000     0.212400000000     0          
O        O      0.625000000000     0.750000000000     0.207650000000     0          
O        O      0.625000000000     0.681200000000     0.000000000000     0          
O        O      0.580600000000     0.653900000000     0.046900000000     0          
O        O      0.546600000000     0.703800000000     0.022150000000     0          
O        O      0.621650000000     0.704050000000     0.059650000000     0          
O        O      0.702200000000     0.716800000000     0.086500000000     0          
O        O      0.625000000000     0.750000000000     0.097950000000     0          
O        O      0.631800000000     0.696850000000     0.122950000000     0          
O        O      0.583750000000     0.653500000000     0.151550000000     0          
O        O      0.547450000000     0.705350000000     0.149000000000     0          
O        O      0.500000000000     0.749800000000     0.125350000000     0          
O        O      0.500000000000     0.740400000000     0.188000000000     0          
O        O      0.500000000000     0.750000000000     0.250000000000     0          
O        O      0.500000000000     0.738000000000     0.062600000000     0          
O        O      0.500000000000     0.750000000000     0.000000000000     0          
O        O      0.556300000000     0.625000000000     0.099800000000     0          
O        O      0.500000000000     0.625000000000     0.048450000000     0          
O        O      0.500000000000     0.625000000000     0.150900000000     0          
T        Si     0.643700000000     0.717200000000     0.214500000000     0          
T        Si     0.593600000000     0.685550000000     0.032400000000     0          
T        Si     0.644900000000     0.717300000000     0.092350000000     0          
T        Si     0.597300000000     0.687750000000     0.152700000000     0          
T        Si     0.500000000000     0.724950000000     0.152950000000     0          
T        Si     0.500000000000     0.765700000000     0.215100000000     0          
T        Si     0.500000000000     0.724300000000     0.026600000000     0          
T        Si     0.500000000000     0.763600000000     0.089400000000     0          
T        Si     0.554900000000     0.625000000000     0.060800000000     0          
T        Si     0.555200000000     0.625000000000     0.138900000000     0          
O        O      0.625000000000     0.792550000000     0.250000000000     0          
O        O      0.628450000000     0.804150000000     0.187100000000     0          
O        O      0.548400000000     0.784850000000     0.212400000000     0          
O        O      0.625000000000     0.818800000000     0.000000000000     0          
O        O      0.669400000000     0.846100000000     0.046900000000     0          
O        O      0.703400000000     0.796200000000     0.022150000000     0          
O        O      0.628350000000     0.795950000000     0.059650000000     0          
O        O      0.547800000000     0.783200000000     0.086500000000     0          
O        O      0.618200000000     0.803150000000     0.122950000000     0          
O        O      0.666250000000     0.846500000000     0.151550000000     0          
O        O      0.702550000000     0.794650000000     0.149000000000     0          
O        O      0.750000000000     0.750200000000     0.125350000000     0          
O        O      0.750000000000     0.759600000000     0.188000000000     0          
O        O      0.750000000000     0.750000000000     0.250000000000     0          
O        O      0.750000000000     0.762000000000     0.062600000000     0          
O        O      0.750000000000     0.750000000000     0.000000000000     0          
O        O      0.693700000000     0.875000000000     0.099800000000     0          
O        O      0.750000000000     0.875000000000     0.048450000000     0          
O        O      0.750000000000     0.875000000000     0.150900000000     0          
T        Si     0.606300000000     0.782800000000     0.214500000000     0          
T        Si     0.656400000000     0.814450000000     0.032400000000     0          
T        Si     0.605100000000     0.782700000000     0.092350000000     0          
T        Si     0.652700000000     0.812250000000     0.152700000000     0          
T        Si     0.750000000000     0.775050000000     0.152950000000     0          
T        Si     0.750000000000     0.734300000000     0.215100000000     0          
T        Si     0.750000000000     0.775700000000     0.026600000000     0          
T        Si     0.750000000000     0.736400000000     0.089400000000     0          
T        Si     0.695100000000     0.875000000000     0.060800000000     0          
T        Si     0.694800000000     0.875000000000     0.138900000000     0          
O        O      0.621550000000     0.804150000000     0.312900000000     0          
O        O      0.701600000000     0.784850000000     0.287600000000     0          
O        O      0.625000000000     0.750000000000     0.292350000000     0          
O        O      0.580600000000     0.846100000000     0.453100000000     0          
O        O      0.546600000000     0.796200000000     0.477850000000     0          
O        O      0.621650000000     0.795950000000     0.440350000000     0          
O        O      0.702200000000     0.783200000000     0.413500000000     0          
O        O      0.625000000000     0.750000000000     0.402050000000     0          
O        O      0.631800000000     0.803150000000     0.377050000000     0          
O        O      0.583750000000     0.846500000000     0.348450000000     0          
O        O      0.547450000000     0.794650000000     0.351000000000     0          
O        O      0.500000000000     0.750200000000     0.374650000000     0          
O        O      0.500000000000     0.759600000000     0.312000000000     0          
O        O      0.500000000000     0.762000000000     0.437400000000     0          
O        O      0.556300000000     0.875000000000     0.400200000000     0          
O        O      0.500000000000     0.875000000000     0.451550000000     0          
O        O      0.500000000000     0.875000000000     0.349100000000     0          
T        Si     0.643700000000     0.782800000000     0.285500000000     0          
T        Si     0.593600000000     0.814450000000     0.467600000000     0          
T        Si     0.644900000000     0.782700000000     0.407650000000     0          
T        Si     0.597300000000     0.812250000000     0.347300000000     0          
T        Si     0.500000000000     0.775050000000     0.347050000000     0          
T        Si     0.500000000000     0.734300000000     0.284900000000     0          
T        Si     0.500000000000     0.775700000000     0.473400000000     0          
T        Si     0.500000000000     0.736400000000     0.410600000000     0          
T        Si     0.554900000000     0.875000000000     0.439200000000     0          
T        Si     0.555200000000     0.875000000000     0.361100000000     0          
O        O      0.628450000000     0.695850000000     0.312900000000     0          
O        O      0.548400000000     0.715150000000     0.287600000000     0          
O        O      0.669400000000     0.653900000000     0.453100000000     0          
O        O      0.703400000000     0.703800000000     0.477850000000     0          
O        O      0.628350000000     0.704050000000     0.440350000000     0          
O        O      0.547800000000     0.716800000000     0.413500000000     0          
O        O      0.618200000000     0.696850000000     0.377050000000     0          
O        O      0.666250000000     0.653500000000     0.348450000000     0          
O        O      0.702550000000     0.705350000000     0.351000000000     0          
O        O      0.750000000000     0.749800000000     0.374650000000     0          
O        O      0.750000000000     0.740400000000     0.312000000000     0          
O        O      0.750000000000     0.738000000000     0.437400000000     0          
O        O      0.693700000000     0.625000000000     0.400200000000     0          
O        O      0.750000000000     0.625000000000     0.451550000000     0          
O        O      0.750000000000     0.625000000000     0.349100000000     0          
T        Si     0.606300000000     0.717200000000     0.285500000000     0          
T        Si     0.656400000000     0.685550000000     0.467600000000     0          
T        Si     0.605100000000     0.717300000000     0.407650000000     0          
T        Si     0.652700000000     0.687750000000     0.347300000000     0          
T        Si     0.750000000000     0.724950000000     0.347050000000     0          
T        Si     0.750000000000     0.765700000000     0.284900000000     0          
T        Si     0.750000000000     0.724300000000     0.473400000000     0          
T        Si     0.750000000000     0.763600000000     0.410600000000     0          
T        Si     0.695100000000     0.625000000000     0.439200000000     0          
T        Si     0.694800000000     0.625000000000     0.361100000000     0          
O        O      0.875000000000     0.792550000000     0.250000000000     0          
O        O      0.878450000000     0.804150000000     0.312900000000     0          
O        O      0.798400000000     0.784850000000     0.287600000000     0          
O        O      0.875000000000     0.750000000000     0.292350000000     0          
O        O      0.875000000000     0.818800000000     0.000000000000     0          
O        O      0.919400000000     0.846100000000     0.453100000000     0          
O        O      0.953400000000     0.796200000000     0.477850000000     0          
O        O      0.878350000000     0.795950000000     0.440350000000     0          
O        O      0.797800000000     0.783200000000     0.413500000000     0          
O        O      0.875000000000     0.750000000000     0.402050000000     0          
O        O      0.868200000000     0.803150000000     0.377050000000     0          
O        O      0.916250000000     0.846500000000     0.348450000000     0          
O        O      0.952550000000     0.794650000000     0.351000000000     0          
O        O      0.943700000000     0.875000000000     0.400200000000     0          
T        Si     0.856300000000     0.782800000000     0.285500000000     0          
T        Si     0.906400000000     0.814450000000     0.467600000000     0          
T        Si     0.855100000000     0.782700000000     0.407650000000     0          
T        Si     0.902700000000     0.812250000000     0.347300000000     0          
T        Si     0.945100000000     0.875000000000     0.439200000000     0          
T        Si     0.944800000000     0.875000000000     0.361100000000     0          
O        O      0.875000000000     0.707450000000     0.250000000000     0          
O        O      0.871550000000     0.695850000000     0.312900000000     0          
O        O      0.951600000000     0.715150000000     0.287600000000     0          
O        O      0.875000000000     0.681200000000     0.000000000000     0          
O        O      0.830600000000     0.653900000000     0.453100000000     0          
O        O      0.796600000000     0.703800000000     0.477850000000     0          
O        O      0.871650000000     0.704050000000     0.440350000000     0          
O        O      0.952200000000     0.716800000000     0.413500000000     0          
O        O      0.881800000000     0.696850000000     0.377050000000     0          
O        O      0.833750000000     0.653500000000     0.348450000000     0          
O        O      0.797450000000     0.705350000000     0.351000000000     0          
O        O      0.806300000000     0.625000000000     0.400200000000     0          
T        Si     0.893700000000     0.717200000000     0.285500000000     0          
T        Si     0.843600000000     0.685550000000     0.467600000000     0          
T        Si     0.894900000000     0.717300000000     0.407650000000     0          
T        Si     0.847300000000     0.687750000000     0.347300000000     0          
T        Si     0.804900000000     0.625000000000     0.439200000000     0          
T        Si     0.805200000000     0.625000000000     0.361100000000     0          
O        O      0.878450000000     0.695850000000     0.187100000000     0          
O        O      0.798400000000     0.715150000000     0.212400000000     0          
O        O      0.875000000000     0.750000000000     0.207650000000     0          
O        O      0.919400000000     0.653900000000     0.046900000000     0          
O        O      0.953400000000     0.703800000000     0.022150000000     0          
O        O      0.878350000000     0.704050000000     0.059650000000     0          
O        O      0.797800000000     0.716800000000     0.086500000000     0          
O        O      0.875000000000     0.750000000000     0.097950000000     0          
O        O      0.868200000000     0.696850000000     0.122950000000     0          
O        O      0.916250000000     0.653500000000     0.151550000000     0          
O        O      0.952550000000     0.705350000000     0.149000000000     0          
O        O      0.943700000000     0.625000000000     0.099800000000     0          
T        Si     0.856300000000     0.717200000000     0.214500000000     0          
T        Si     0.906400000000     0.685550000000     0.032400000000     0          
T        Si     0.855100000000     0.717300000000     0.092350000000     0          
T        Si     0.902700000000     0.687750000000     0.152700000000     0          
T        Si     0.945100000000     0.625000000000     0.060800000000     0          
T        Si     0.944800000000     0.625000000000     0.138900000000     0          
O        O      0.871550000000     0.804150000000     0.187100000000     0          
O        O      0.951600000000     0.784850000000     0.212400000000     0          
O        O      0.830600000000     0.846100000000     0.046900000000     0          
O        O      0.796600000000     0.796200000000     0.022150000000     0          
O        O      0.871650000000     0.795950000000     0.059650000000     0          
O        O      0.952200000000     0.783200000000     0.086500000000     0          
O        O      0.881800000000     0.803150000000     0.122950000000     0          
O        O      0.833750000000     0.846500000000     0.151550000000     0          
O        O      0.797450000000     0.794650000000     0.149000000000     0          
O        O      0.806300000000     0.875000000000     0.099800000000     0          
T        Si     0.893700000000     0.782800000000     0.214500000000     0          
T        Si     0.843600000000     0.814450000000     0.032400000000     0          
T        Si     0.894900000000     0.782700000000     0.092350000000     0          
T        Si     0.847300000000     0.812250000000     0.152700000000     0          
T        Si     0.804900000000     0.875000000000     0.060800000000     0          
T        Si     0.805200000000     0.875000000000     0.138900000000     0          
O        O      0.875000000000     0.957450000000     0.250000000000     0          
O        O      0.871550000000     0.945850000000     0.187100000000     0          
O        O      0.951600000000     0.965150000000     0.212400000000     0          
O        O      0.875000000000     0.500000000000     0.207650000000     0          
O        O      0.875000000000     0.931200000000     0.000000000000     0          
O        O      0.830600000000     0.903900000000     0.046900000000     0          
O        O      0.796600000000     0.953800000000     0.022150000000     0          
O        O      0.871650000000     0.954050000000     0.059650000000     0          
O        O      0.952200000000     0.966800000000     0.086500000000     0          
O        O      0.875000000000     0.500000000000     0.097950000000     0          
O        O      0.881800000000     0.946850000000     0.122950000000     0          
O        O      0.833750000000     0.903500000000     0.151550000000     0          
O        O      0.797450000000     0.955350000000     0.149000000000     0          
O        O      0.750000000000     0.999800000000     0.125350000000     0          
O        O      0.750000000000     0.990400000000     0.188000000000     0          
O        O      0.750000000000     0.500000000000     0.250000000000     0          
O        O      0.750000000000     0.988000000000     0.062600000000     0          
O        O      0.750000000000     0.500000000000     0.000000000000     0          
T        Si     0.893700000000     0.967200000000     0.214500000000     0          
T        Si     0.843600000000     0.935550000000     0.032400000000     0          
T        Si     0.894900000000     0.967300000000     0.092350000000     0          
T        Si     0.847300000000     0.937750000000     0.152700000000     0          
T        Si     0.750000000000     0.974950000000     0.152950000000     0          
T        Si     0.750000000000     0.515700000000     0.215100000000     0          
T        Si     0.750000000000     0.974300000000     0.026600000000     0          
T        Si     0.750000000000     0.513600000000     0.089400000000     0          
O        O      0.875000000000     0.542550000000     0.250000000000     0          
O        O      0.878450000000     0.554150000000     0.187100000000     0          
O        O      0.798400000000     0.534850000000     0.212400000000     0          
O        O      0.875000000000     0.568800000000     0.000000000000     0          
O        O      0.919400000000     0.596100000000     0.046900000000     0          
O        O      0.953400000000     0.546200000000     0.022150000000     0          
O        O      0.878350000000     0.545950000000     0.059650000000     0          
O        O      0.797800000000     0.533200000000     0.086500000000     0          
O        O      0.868200000000     0.553150000000     0.122950000000     0          
O        O      0.916250000000     0.596500000000     0.151550000000     0          
O        O      0.952550000000     0.544650000000     0.149000000000     0          
O        O      0.500000000000     0.500200000000     0.125350000000     0          
O        O      0.500000000000     0.509600000000     0.188000000000     0          
O        O      0.500000000000     0.500000000000     0.250000000000     0          
O        O      0.500000000000     0.512000000000     0.062600000000     0          
O        O      0.500000000000     0.500000000000     0.000000000000     0          
T        Si     0.856300000000     0.532800000000     0.214500000000     0          
T        Si     0.906400000000     0.564450000000     0.032400000000     0          
T        Si     0.855100000000     0.532700000000     0.092350000000     0          
T        Si     0.902700000000     0.562250000000     0.152700000000     0          
T        Si     0.500000000000     0.525050000000     0.152950000000     0          
T        Si     0.500000000000     0.984300000000     0.215100000000     0          
T        Si     0.500000000000     0.525700000000     0.026600000000     0          
T        Si     0.500000000000     0.986400000000     0.089400000000     0          
O        O      0.871550000000     0.554150000000     0.312900000000     0          
O        O      0.951600000000     0.534850000000     0.287600000000     0          
O        O      0.875000000000     0.500000000000     0.292350000000     0          
O        O      0.830600000000     0.596100000000     0.453100000000     0          
O        O      0.796600000000     0.546200000000     0.477850000000     0          
O        O      0.871650000000     0.545950000000     0.440350000000     0          
O        O      0.952200000000     0.533200000000     0.413500000000     0          
O        O      0.875000000000     0.500000000000     0.402050000000     0          
O        O      0.881800000000     0.553150000000     0.377050000000     0          
O        O      0.833750000000     0.596500000000     0.348450000000     0          
O        O      0.797450000000     0.544650000000     0.351000000000     0          
O        O      0.750000000000     0.500200000000     0.374650000000     0          
O        O      0.750000000000     0.509600000000     0.312000000000     0          
O        O      0.750000000000     0.512000000000     0.437400000000     0          
T        Si     0.893700000000     0.532800000000     0.285500000000     0          
T        Si     0.843600000000     0.564450000000     0.467600000000     0          
T        Si     0.894900000000     0.532700000000     0.407650000000     0          
T        Si     0.847300000000     0.562250000000     0.347300000000     0          
T        Si     0.750000000000     0.525050000000     0.347050000000     0          
T        Si     0.750000000000     0.984300000000     0.284900000000     0          
T        Si     0.750000000000     0.525700000000     0.473400000000     0          
T        Si     0.750000000000     0.986400000000     0.410600000000     0          
O        O      0.878450000000     0.945850000000     0.312900000000     0          
O        O      0.798400000000     0.965150000000     0.287600000000     0          
O        O      0.919400000000     0.903900000000     0.453100000000     0          
O        O      0.953400000000     0.953800000000     0.477850000000     0          
O        O      0.878350000000     0.954050000000     0.440350000000     0          
O        O      0.797800000000     0.966800000000     0.413500000000     0          
O        O      0.868200000000     0.946850000000     0.377050000000     0          
O        O      0.916250000000     0.903500000000     0.348450000000     0          
O        O      0.952550000000     0.955350000000     0.351000000000     0          
O        O      0.500000000000     0.999800000000     0.374650000000     0          
O        O      0.500000000000     0.990400000000     0.312000000000     0          
O        O      0.500000000000     0.988000000000     0.437400000000     0          
T        Si     0.856300000000     0.967200000000     0.285500000000     0          
T        Si     0.906400000000     0.935550000000     0.467600000000     0          
T        Si     0.855100000000     0.967300000000     0.407650000000     0          
T        Si     0.902700000000     0.937750000000     0.347300000000     0          
T        Si     0.500000000000     0.974950000000     0.347050000000     0          
T        Si     0.500000000000     0.515700000000     0.284900000000     0          
T        Si     0.500000000000     0.974300000000     0.473400000000     0          
T        Si     0.500000000000     0.513600000000     0.410600000000     0          
O        O      0.625000000000     0.542550000000     0.250000000000     0          
O        O      0.628450000000     0.554150000000     0.312900000000     0          
O        O      0.548400000000     0.534850000000     0.287600000000     0          
O        O      0.625000000000     0.500000000000     0.292350000000     0          
O        O      0.625000000000     0.568800000000     0.000000000000     0          
O        O      0.669400000000     0.596100000000     0.453100000000     0          
O        O      0.703400000000     0.546200000000     0.477850000000     0          
O        O      0.628350000000     0.545950000000     0.440350000000     0          
O        O      0.547800000000     0.533200000000     0.413500000000     0          
O        O      0.625000000000     0.500000000000     0.402050000000     0          
O        O      0.618200000000     0.553150000000     0.377050000000     0          
O        O      0.666250000000     0.596500000000     0.348450000000     0          
O        O      0.702550000000     0.544650000000     0.351000000000     0          
T        Si     0.606300000000     0.532800000000     0.285500000000     0          
T        Si     0.656400000000     0.564450000000     0.467600000000     0          
T        Si     0.605100000000     0.532700000000     0.407650000000     0          
T        Si     0.652700000000     0.562250000000     0.347300000000     0          
O        O      0.625000000000     0.957450000000     0.250000000000     0          
O        O      0.621550000000     0.945850000000     0.312900000000     0          
O        O      0.701600000000     0.965150000000     0.287600000000     0          
O        O      0.625000000000     0.931200000000     0.000000000000     0          
O        O      0.580600000000     0.903900000000     0.453100000000     0          
O        O      0.546600000000     0.953800000000     0.477850000000     0          
O        O      0.621650000000     0.954050000000     0.440350000000     0          
O        O      0.702200000000     0.966800000000     0.413500000000     0          
O        O      0.631800000000     0.946850000000     0.377050000000     0          
O        O      0.583750000000     0.903500000000     0.348450000000     0          
O        O      0.547450000000     0.955350000000     0.351000000000     0          
T        Si     0.643700000000     0.967200000000     0.285500000000     0          
T        Si     0.593600000000     0.935550000000     0.467600000000     0          
T        Si     0.644900000000     0.967300000000     0.407650000000     0          
T        Si     0.597300000000     0.937750000000     0.347300000000     0          
O        O      0.628450000000     0.945850000000     0.187100000000     0          
O        O      0.548400000000     0.965150000000     0.212400000000     0          
O        O      0.625000000000     0.500000000000     0.207650000000     0          
O        O      0.669400000000     0.903900000000     0.046900000000     0          
O        O      0.703400000000     0.953800000000     0.022150000000     0          
O        O      0.628350000000     0.954050000000     0.059650000000     0          
O        O      0.547800000000     0.966800000000     0.086500000000     0          
O        O      0.625000000000     0.500000000000     0.097950000000     0          
O        O      0.618200000000     0.946850000000     0.122950000000     0          
O        O      0.666250000000     0.903500000000     0.151550000000     0          
O        O      0.702550000000     0.955350000000     0.149000000000     0          
T        Si     0.606300000000     0.967200000000     0.214500000000     0          
T        Si     0.656400000000     0.935550000000     0.032400000000     0          
T        Si     0.605100000000     0.967300000000     0.092350000000     0          
T        Si     0.652700000000     0.937750000000     0.152700000000     0          
O        O      0.621550000000     0.554150000000     0.187100000000     0          
O        O      0.701600000000     0.534850000000     0.212400000000     0          
O        O      0.580600000000     0.596100000000     0.046900000000     0          
O        O      0.546600000000     0.546200000000     0.022150000000     0          
O        O      0.621650000000     0.545950000000     0.059650000000     0          
O        O      0.702200000000     0.533200000000     0.086500000000     0          
O        O      0.631800000000     0.553150000000     0.122950000000     0          
O        O      0.583750000000     0.596500000000     0.151550000000     0          
O        O      0.547450000000     0.544650000000     0.149000000000     0          
T        Si     0.643700000000     0.532800000000     0.214500000000     0          
T        Si     0.593600000000     0.564450000000     0.032400000000     0          
T        Si     0.644900000000     0.532700000000     0.092350000000     0          
T        Si     0.597300000000     0.562250000000     0.152700000000     0          
O        O      0.625000000000     0.707450000000     0.750000000000     0          
O        O      0.621550000000     0.695850000000     0.687100000000     0          
O        O      0.701600000000     0.715150000000     0.712400000000     0          
O        O      0.625000000000     0.750000000000     0.707650000000     0          
O        O      0.625000000000     0.681200000000     0.500000000000     0          
O        O      0.580600000000     0.653900000000     0.546900000000     0          
O        O      0.546600000000     0.703800000000     0.522150000000     0          
O        O      0.621650000000     0.704050000000     0.559650000000     0          
O        O      0.702200000000     0.716800000000     0.586500000000     0          
O        O      0.625000000000     0.750000000000     0.597950000000     0          
O        O      0.631800000000     0.696850000000     0.622950000000     0          
O        O      0.583750000000     0.653500000000     0.651550000000     0          
O        O      0.547450000000     0.705350000000     0.649000000000     0          
O        O      0.500000000000     0.749800000000     0.625350000000     0          
O        O      0.500000000000     0.740400000000     0.688000000000     0          
O        O      0.500000000000     0.750000000000     0.750000000000     0          
O        O      0.500000000000     0.738000000000     0.562600000000     0          
O        O      0.500000000000     0.750000000000     0.500000000000     0          
O        O      0.556300000000     0.625000000000     0.599800000000     0          
O        O      0.500000000000     0.625000000000     0.548450000000     0          
O        O      0.500000000000     0.625000000000     0.650900000000     0          
T        Si     0.643700000000     0.717200000000     0.714500000000     0          
T        Si     0.593600000000     0.685550000000     0.532400000000     0          
T        Si     0.644900000000     0.717300000000     0.592350000000     0          
T        Si     0.597300000000     0.687750000000     0.652700000000     0          
T        Si     0.500000000000     0.724950000000     0.652950000000     0          
T        Si     0.500000000000     0.765700000000     0.715100000000     0          
T        Si     0.500000000000     0.724300000000     0.526600000000     0          
T        Si     0.500000000000     0.763600000000     0.589400000000     0          
T        Si     0.554900000000     0.625000000000     0.560800000000     0          
T        Si     0.555200000000     0.625000000000     0.638900000000     0          
O        O      0.625000000000     0.792550000000     0.750000000000     0          
O        O      0.628450000000     0.804150000000     0.687100000000     0          
O        O      0.548400000000     0.784850000000     0.712400000000     0          
O        O      0.625000000000     0.818800000000     0.500000000000     0          
O        O      0.669400000000     0.846100000000     0.546900000000     0          
O        O      0.703400000000     0.796200000000     0.522150000000     0          
O        O      0.628350000000     0.795950000000     0.559650000000     0          
O        O      0.547800000000     0.783200000000     0.586500000000     0          
O        O      0.618200000000     0.803150000000     0.622950000000     0          
O        O      0.666250000000     0.846500000000     0.651550000000     0          
O        O      0.702550000000     0.794650000000     0.649000000000     0          
O        O      0.750000000000     0.750200000000     0.625350000000     0          
O        O      0.750000000000     0.759600000000     0.688000000000     0          
O        O      0.750000000000     0.750000000000     0.750000000000     0          
O        O      0.750000000000     0.762000000000     0.562600000000     0          
O        O      0.750000000000     0.750000000000     0.500000000000     0          
O        O      0.693700000000     0.875000000000     0.599800000000     0          
O        O      0.750000000000     0.875000000000     0.548450000000     0          
O        O      0.750000000000     0.875000000000     0.650900000000     0          
T        Si     0.606300000000     0.782800000000     0.714500000000     0          
T        Si     0.656400000000     0.814450000000     0.532400000000     0          
T        Si     0.605100000000     0.782700000000     0.592350000000     0          
T        Si     0.652700000000     0.812250000000     0.652700000000     0          
T        Si     0.750000000000     0.775050000000     0.652950000000     0          
T        Si     0.750000000000     0.734300000000     0.715100000000     0          
T        Si     0.750000000000     0.775700000000     0.526600000000     0          
T        Si     0.750000000000     0.736400000000     0.589400000000     0          
T        Si     0.695100000000     0.875000000000     0.560800000000     0          
T        Si     0.694800000000     0.875000000000     0.638900000000     0          
O        O      0.621550000000     0.804150000000     0.812900000000     0          
O        O      0.701600000000     0.784850000000     0.787600000000     0          
O        O      0.625000000000     0.750000000000     0.792350000000     0          
O        O      0.580600000000     0.846100000000     0.953100000000     0          
O        O      0.546600000000     0.796200000000     0.977850000000     0          
O        O      0.621650000000     0.795950000000     0.940350000000     0          
O        O      0.702200000000     0.783200000000     0.913500000000     0          
O        O      0.625000000000     0.750000000000     0.902050000000     0          
O        O      0.631800000000     0.803150000000     0.877050000000     0          
O        O      0.583750000000     0.846500000000     0.848450000000     0          
O        O      0.547450000000     0.794650000000     0.851000000000     0          
O        O      0.500000000000     0.750200000000     0.874650000000     0          
O        O      0.500000000000     0.759600000000     0.812000000000     0          
O        O      0.500000000000     0.762000000000     0.937400000000     0          
O        O      0.556300000000     0.875000000000     0.900200000000     0          
O        O      0.500000000000     0.875000000000     0.951550000000     0          
O        O      0.500000000000     0.875000000000     0.849100000000     0          
T        Si     0.643700000000     0.782800000000     0.785500000000     0          
T        Si     0.593600000000     0.814450000000     0.967600000000     0          
T        Si     0.644900000000     0.782700000000     0.907650000000     0          
T        Si     0.597300000000     0.812250000000     0.847300000000     0          
T        Si     0.500000000000     0.775050000000     0.847050000000     0          
T        Si     0.500000000000     0.734300000000     0.784900000000     0          
T        Si     0.500000000000     0.775700000000     0.973400000000     0          
T        Si     0.500000000000     0.736400000000     0.910600000000     0          
T        Si     0.554900000000     0.875000000000     0.939200000000     0          
T        Si     0.555200000000     0.875000000000     0.861100000000     0          
O        O      0.628450000000     0.695850000000     0.812900000000     0          
O        O      0.548400000000     0.715150000000     0.787600000000     0          
O        O      0.669400000000     0.653900000000     0.953100000000     0          
O        O      0.703400000000     0.703800000000     0.977850000000     0          
O        O      0.628350000000     0.704050000000     0.940350000000     0          
O        O      0.547800000000     0.716800000000     0.913500000000     0          
O        O      0.618200000000     0.696850000000     0.877050000000     0          
O        O      0.666250000000     0.653500000000     0.848450000000     0          
O        O      0.702550000000     0.705350000000     0.851000000000     0          
O        O      0.750000000000     0.749800000000     0.874650000000     0          
O        O      0.750000000000     0.740400000000     0.812000000000     0          
O        O      0.750000000000     0.738000000000     0.937400000000     0          
O        O      0.693700000000     0.625000000000     0.900200000000     0          
O        O      0.750000000000     0.625000000000     0.951550000000     0          
O        O      0.750000000000     0.625000000000     0.849100000000     0          
T        Si     0.606300000000     0.717200000000     0.785500000000     0          
T        Si     0.656400000000     0.685550000000     0.967600000000     0          
T        Si     0.605100000000     0.717300000000     0.907650000000     0          
T        Si     0.652700000000     0.687750000000     0.847300000000     0          
T        Si     0.750000000000     0.724950000000     0.847050000000     0          
T        Si     0.750000000000     0.765700000000     0.784900000000     0          
T        Si     0.750000000000     0.724300000000     0.973400000000     0          
T        Si     0.750000000000     0.763600000000     0.910600000000     0          
T        Si     0.695100000000     0.625000000000     0.939200000000     0          
T        Si     0.694800000000     0.625000000000     0.861100000000     0          
O        O      0.875000000000     0.792550000000     0.750000000000     0          
O        O      0.878450000000     0.804150000000     0.812900000000     0          
O        O      0.798400000000     0.784850000000     0.787600000000     0          
O        O      0.875000000000     0.750000000000     0.792350000000     0          
O        O      0.875000000000     0.818800000000     0.500000000000     0          
O        O      0.919400000000     0.846100000000     0.953100000000     0          
O        O      0.953400000000     0.796200000000     0.977850000000     0          
O        O      0.878350000000     0.795950000000     0.940350000000     0          
O        O      0.797800000000     0.783200000000     0.913500000000     0          
O        O      0.875000000000     0.750000000000     0.902050000000     0          
O        O      0.868200000000     0.803150000000     0.877050000000     0          
O        O      0.916250000000     0.846500000000     0.848450000000     0          
O        O      0.952550000000     0.794650000000     0.851000000000     0          
O        O      0.943700000000     0.875000000000     0.900200000000     0          
T        Si     0.856300000000     0.782800000000     0.785500000000     0          
T        Si     0.906400000000     0.814450000000     0.967600000000     0          
T        Si     0.855100000000     0.782700000000     0.907650000000     0          
T        Si     0.902700000000     0.812250000000     0.847300000000     0          
T        Si     0.945100000000     0.875000000000     0.939200000000     0          
T        Si     0.944800000000     0.875000000000     0.861100000000     0          
O        O      0.875000000000     0.707450000000     0.750000000000     0          
O        O      0.871550000000     0.695850000000     0.812900000000     0          
O        O      0.951600000000     0.715150000000     0.787600000000     0          
O        O      0.875000000000     0.681200000000     0.500000000000     0          
O        O      0.830600000000     0.653900000000     0.953100000000     0          
O        O      0.796600000000     0.703800000000     0.977850000000     0          
O        O      0.871650000000     0.704050000000     0.940350000000     0          
O        O      0.952200000000     0.716800000000     0.913500000000     0          
O        O      0.881800000000     0.696850000000     0.877050000000     0          
O        O      0.833750000000     0.653500000000     0.848450000000     0          
O        O      0.797450000000     0.705350000000     0.851000000000     0          
O        O      0.806300000000     0.625000000000     0.900200000000     0          
T        Si     0.893700000000     0.717200000000     0.785500000000     0          
T        Si     0.843600000000     0.685550000000     0.967600000000     0          
T        Si     0.894900000000     0.717300000000     0.907650000000     0          
T        Si     0.847300000000     0.687750000000     0.847300000000     0          
T        Si     0.804900000000     0.625000000000     0.939200000000     0          
T        Si     0.805200000000     0.625000000000     0.861100000000     0          
O        O      0.878450000000     0.695850000000     0.687100000000     0          
O        O      0.798400000000     0.715150000000     0.712400000000     0          
O        O      0.875000000000     0.750000000000     0.707650000000     0          
O        O      0.919400000000     0.653900000000     0.546900000000     0          
O        O      0.953400000000     0.703800000000     0.522150000000     0          
O        O      0.878350000000     0.704050000000     0.559650000000     0          
O        O      0.797800000000     0.716800000000     0.586500000000     0          
O        O      0.875000000000     0.750000000000     0.597950000000     0          
O        O      0.868200000000     0.696850000000     0.622950000000     0          
O        O      0.916250000000     0.653500000000     0.651550000000     0          
O        O      0.952550000000     0.705350000000     0.649000000000     0          
O        O      0.943700000000     0.625000000000     0.599800000000     0          
T        Si     0.856300000000     0.717200000000     0.714500000000     0          
T        Si     0.906400000000     0.685550000000     0.532400000000     0          
T        Si     0.855100000000     0.717300000000     0.592350000000     0          
T        Si     0.902700000000     0.687750000000     0.652700000000     0          
T        Si     0.945100000000     0.625000000000     0.560800000000     0          
T        Si     0.944800000000     0.625000000000     0.638900000000     0          
O        O      0.871550000000     0.804150000000     0.687100000000     0          
O        O      0.951600000000     0.784850000000     0.712400000000     0          
O        O      0.830600000000     0.846100000000     0.546900000000     0          
O        O      0.796600000000     0.796200000000     0.522150000000     0          
O        O      0.871650000000     0.795950000000     0.559650000000     0          
O        O      0.952200000000     0.783200000000     0.586500000000     0          
O        O      0.881800000000     0.803150000000     0.622950000000     0          
O        O      0.833750000000     0.846500000000     0.651550000000     0          
O        O      0.797450000000     0.794650000000     0.649000000000     0          
O        O      0.806300000000     0.875000000000     0.599800000000     0          
T        Si     0.893700000000     0.782800000000     0.714500000000     0          
T        Si     0.843600000000     0.814450000000     0.532400000000     0          
T        Si     0.894900000000     0.782700000000     0.592350000000     0          
T        Si     0.847300000000     0.812250000000     0.652700000000     0          
T        Si     0.804900000000     0.875000000000     0.560800000000     0          
T        Si     0.805200000000     0.875000000000     0.638900000000     0          
O        O      0.875000000000     0.957450000000     0.750000000000     0          
O        O      0.871550000000     0.945850000000     0.687100000000     0          
O        O      0.951600000000     0.965150000000     0.712400000000     0          
O        O      0.875000000000     0.500000000000     0.707650000000     0          
O        O      0.875000000000     0.931200000000     0.500000000000     0          
O        O      0.830600000000     0.903900000000     0.546900000000     0          
O        O      0.796600000000     0.953800000000     0.522150000000     0          
O        O      0.871650000000     0.954050000000     0.559650000000     0          
O        O      0.952200000000     0.966800000000     0.586500000000     0          
O        O      0.875000000000     0.500000000000     0.597950000000     0          
O        O      0.881800000000     0.946850000000     0.622950000000     0          
O        O      0.833750000000     0.903500000000     0.651550000000     0          
O        O      0.797450000000     0.955350000000     0.649000000000     0          
O        O      0.750000000000     0.999800000000     0.625350000000     0          
O        O      0.750000000000     0.990400000000     0.688000000000     0          
O        O      0.750000000000     0.500000000000     0.750000000000     0          
O        O      0.750000000000     0.988000000000     0.562600000000     0          
O        O      0.750000000000     0.500000000000     0.500000000000     0          
T        Si     0.893700000000     0.967200000000     0.714500000000     0          
T        Si     0.843600000000     0.935550000000     0.532400000000     0          
T        Si     0.894900000000     0.967300000000     0.592350000000     0          
T        Si     0.847300000000     0.937750000000     0.652700000000     0          
T        Si     0.750000000000     0.974950000000     0.652950000000     0          
T        Si     0.750000000000     0.515700000000     0.715100000000     0          
T        Si     0.750000000000     0.974300000000     0.526600000000     0          
T        Si     0.750000000000     0.513600000000     0.589400000000     0          
O        O      0.875000000000     0.542550000000     0.750000000000     0          
O        O      0.878450000000     0.554150000000     0.687100000000     0          
O        O      0.798400000000     0.534850000000     0.712400000000     0          
O        O      0.875000000000     0.568800000000     0.500000000000     0          
O        O      0.919400000000     0.596100000000     0.546900000000     0          
O        O      0.953400000000     0.546200000000     0.522150000000     0          
O        O      0.878350000000     0.545950000000     0.559650000000     0          
O        O      0.797800000000     0.533200000000     0.586500000000     0          
O        O      0.868200000000     0.553150000000     0.622950000000     0          
O        O      0.916250000000     0.596500000000     0.651550000000     0          
O        O      0.952550000000     0.544650000000     0.649000000000     0          
O        O      0.500000000000     0.500200000000     0.625350000000     0          
O        O      0.500000000000     0.509600000000     0.688000000000     0          
O        O      0.500000000000     0.500000000000     0.750000000000     0          
O        O      0.500000000000     0.512000000000     0.562600000000     0          
O        O      0.500000000000     0.500000000000     0.500000000000     0          
T        Si     0.856300000000     0.532800000000     0.714500000000     0          
T        Si     0.906400000000     0.564450000000     0.532400000000     0          
T        Si     0.855100000000     0.532700000000     0.592350000000     0          
T        Si     0.902700000000     0.562250000000     0.652700000000     0          
T        Si     0.500000000000     0.525050000000     0.652950000000     0          
T        Si     0.500000000000     0.984300000000     0.715100000000     0          
T        Si     0.500000000000     0.525700000000     0.526600000000     0          
T        Si     0.500000000000     0.986400000000     0.589400000000     0          
O        O      0.871550000000     0.554150000000     0.812900000000     0          
O        O      0.951600000000     0.534850000000     0.787600000000     0          
O        O      0.875000000000     0.500000000000     0.792350000000     0          
O        O      0.830600000000     0.596100000000     0.953100000000     0          
O        O      0.796600000000     0.546200000000     0.977850000000     0          
O        O      0.871650000000     0.545950000000     0.940350000000     0          
O        O      0.952200000000     0.533200000000     0.913500000000     0          
O        O      0.875000000000     0.500000000000     0.902050000000     0          
O        O      0.881800000000     0.553150000000     0.877050000000     0          
O        O      0.833750000000     0.596500000000     0.848450000000     0          
O        O      0.797450000000     0.544650000000     0.851000000000     0          
O        O      0.750000000000     0.500200000000     0.874650000000     0          
O        O      0.750000000000     0.509600000000     0.812000000000     0          
O        O      0.750000000000     0.512000000000     0.937400000000     0          
T        Si     0.893700000000     0.532800000000     0.785500000000     0          
T        Si     0.843600000000     0.564450000000     0.967600000000     0          
T        Si     0.894900000000     0.532700000000     0.907650000000     0          
T        Si     0.847300000000     0.562250000000     0.847300000000     0          
T        Si     0.750000000000     0.525050000000     0.847050000000     0          
T        Si     0.750000000000     0.984300000000     0.784900000000     0          
T        Si     0.750000000000     0.525700000000     0.973400000000     0          
T        Si     0.750000000000     0.986400000000     0.910600000000     0          
O        O      0.878450000000     0.945850000000     0.812900000000     0          
O        O      0.798400000000     0.965150000000     0.787600000000     0          
O        O      0.919400000000     0.903900000000     0.953100000000     0          
O        O      0.953400000000     0.953800000000     0.977850000000     0          
O        O      0.878350000000     0.954050000000     0.940350000000     0          
O        O      0.797800000000     0.966800000000     0.913500000000     0          
O        O      0.868200000000     0.946850000000     0.877050000000     0          
O        O      0.916250000000     0.903500000000     0.848450000000     0          
O        O      0.952550000000     0.955350000000     0.851000000000     0          
O        O      0.500000000000     0.999800000000     0.874650000000     0          
O        O      0.500000000000     0.990400000000     0.812000000000     0          
O        O      0.500000000000     0.988000000000     0.937400000000     0          
T        Si     0.856300000000     0.967200000000     0.785500000000     0          
T        Si     0.906400000000     0.935550000000     0.967600000000     0          
T        Si     0.855100000000     0.967300000000     0.907650000000     0          
T        Si     0.902700000000     0.937750000000     0.847300000000     0          
T        Si     0.500000000000     0.974950000000     0.847050000000     0          
T        Si     0.500000000000     0.515700000000     0.784900000000     0          
T        Si     0.500000000000     0.974300000000     0.973400000000     0          
T        Si     0.500000000000     0.513600000000     0.910600000000     0          
O        O      0.625000000000     0.542550000000     0.750000000000     0          
O        O      0.628450000000     0.554150000000     0.812900000000     0          
O        O      0.548400000000     0.534850000000     0.787600000000     0          
O        O      0.625000000000     0.500000000000     0.792350000000     0          
O        O      0.625000000000     0.568800000000     0.500000000000     0          
O        O      0.669400000000     0.596100000000     0.953100000000     0          
O        O      0.703400000000     0.546200000000     0.977850000000     0          
O        O      0.628350000000     0.545950000000     0.940350000000     0          
O        O      0.547800000000     0.533200000000     0.913500000000     0          
O        O      0.625000000000     0.500000000000     0.902050000000     0          
O        O      0.618200000000     0.553150000000     0.877050000000     0          
O        O      0.666250000000     0.596500000000     0.848450000000     0          
O        O      0.702550000000     0.544650000000     0.851000000000     0          
T        Si     0.606300000000     0.532800000000     0.785500000000     0          
T        Si     0.656400000000     0.564450000000     0.967600000000     0          
T        Si     0.605100000000     0.532700000000     0.907650000000     0          
T        Si     0.652700000000     0.562250000000     0.847300000000     0          
O        O      0.625000000000     0.957450000000     0.750000000000     0          
O        O      0.621550000000     0.945850000000     0.812900000000     0          
O        O      0.701600000000     0.965150000000     0.787600000000     0          
O        O      0.625000000000     0.931200000000     0.500000000000     0          
O        O      0.580600000000     0.903900000000     0.953100000000     0          
O        O      0.546600000000     0.953800000000     0.977850000000     0          
O        O      0.621650000000     0.954050000000     0.940350000000     0          
O        O      0.702200000000     0.966800000000     0.913500000000     0          
O        O      0.631800000000     0.946850000000     0.877050000000     0          
O        O      0.583750000000     0.903500000000     0.848450000000     0          
O        O      0.547450000000     0.955350000000     0.851000000000     0          
T        Si     0.643700000000     0.967200000000     0.785500000000     0          
T        Si     0.593600000000     0.935550000000     0.967600000000     0          
T        Si     0.644900000000     0.967300000000     0.907650000000     0          
T        Si     0.597300000000     0.937750000000     0.847300000000     0          
O        O      0.628450000000     0.945850000000     0.687100000000     0          
O        O      0.548400000000     0.965150000000     0.712400000000     0          
O        O      0.625000000000     0.500000000000     0.707650000000     0          
O        O      0.669400000000     0.903900000000     0.546900000000     0          
O        O      0.703400000000     0.953800000000     0.522150000000     0          
O        O      0.628350000000     0.954050000000     0.559650000000     0          
O        O      0.547800000000     0.966800000000     0.586500000000     0          
O        O      0.625000000000     0.500000000000     0.597950000000     0          
O        O      0.618200000000     0.946850000000     0.622950000000     0          
O        O      0.666250000000     0.903500000000     0.651550000000     0          
O        O      0.702550000000     0.955350000000     0.649000000000     0          
T        Si     0.606300000000     0.967200000000     0.714500000000     0          
T        Si     0.656400000000     0.935550000000     0.532400000000     0          
T        Si     0.605100000000     0.967300000000     0.592350000000     0          
T        Si     0.652700000000     0.937750000000     0.652700000000     0          
O        O      0.621550000000     0.554150000000     0.687100000000     0          
O        O      0.701600000000     0.534850000000     0.712400000000     0          
O        O      0.580600000000     0.596100000000     0.546900000000     0          
O        O      0.546600000000     0.546200000000     0.522150000000     0          
O        O      0.621650000000     0.545950000000     0.559650000000     0          
O        O      0.702200000000     0.533200000000     0.586500000000     0          
O        O      0.631800000000     0.553150000000     0.622950000000     0          
O        O      0.583750000000     0.596500000000     0.651550000000     0          
O        O      0.547450000000     0.544650000000     0.649000000000     0          
T        Si     0.643700000000     0.532800000000     0.714500000000     0          
T        Si     0.593600000000     0.564450000000     0.532400000000     0          
T        Si     0.644900000000     0.532700000000     0.592350000000     0          
T        Si     0.597300000000     0.562250000000     0.652700000000     0          


