data_zeolite

_audit_creation_method RASPA-1.0
_audit_creation_date 2021-6-6
_audit_author_name ''

_cell_length_a    7.557
_cell_length_b    18.715
_cell_length_c    14.099
_cell_angle_alpha 90
_cell_angle_beta  90
_cell_angle_gamma 90
_cell_volume      31904.2

_symmetry_cell_setting          orthorhombic
_symmetry_space_group_name_Hall 'P 1'
_symmetry_space_group_name_H-M  'P 1'
_symmetry_Int_Tables_number     1

_symmetry_equiv_pos_as_xyz 'x,y,z'

loop_
_atom_site_label
_atom_site_type_symbol
_atom_site_fract_x
_atom_site_fract_y
_atom_site_fract_z
_atom_site_charge
T        Si     0.073525000000     0.087900000000     0.025800000000     0          
T        Si     0.051200000000     0.120750000000     0.125000000000     0          
T        Si     0.000000000000     0.039750000000     0.271450000000     0          
T        Si     0.000000000000     0.431300000000     0.125000000000     0          
T        Si     0.176475000000     0.412100000000     0.275800000000     0          
T        Si     0.198800000000     0.379250000000     0.375000000000     0          
T        Si     0.000000000000     0.460250000000     0.021450000000     0          
T        Si     0.000000000000     0.068700000000     0.375000000000     0          
T        Si     0.073525000000     0.412100000000     0.474200000000     0          
T        Si     0.051200000000     0.379250000000     0.375000000000     0          
T        Si     0.000000000000     0.460250000000     0.228550000000     0          
T        Si     0.176475000000     0.087900000000     0.224200000000     0          
T        Si     0.198800000000     0.120750000000     0.125000000000     0          
T        Si     0.000000000000     0.039750000000     0.478550000000     0          
T        Si     0.176475000000     0.412100000000     0.474200000000     0          
T        Si     0.073525000000     0.087900000000     0.224200000000     0          
T        Si     0.176475000000     0.087900000000     0.025800000000     0          
T        Si     0.073525000000     0.412100000000     0.275800000000     0          
T        Si     0.198525000000     0.337900000000     0.025800000000     0          
T        Si     0.176200000000     0.370750000000     0.125000000000     0          
T        Si     0.125000000000     0.289750000000     0.271450000000     0          
T        Si     0.125000000000     0.181300000000     0.125000000000     0          
T        Si     0.051475000000     0.162100000000     0.275800000000     0          
T        Si     0.073800000000     0.129250000000     0.375000000000     0          
T        Si     0.125000000000     0.210250000000     0.021450000000     0          
T        Si     0.125000000000     0.318700000000     0.375000000000     0          
T        Si     0.198525000000     0.162100000000     0.474200000000     0          
T        Si     0.176200000000     0.129250000000     0.375000000000     0          
T        Si     0.125000000000     0.210250000000     0.228550000000     0          
T        Si     0.051475000000     0.337900000000     0.224200000000     0          
T        Si     0.073800000000     0.370750000000     0.125000000000     0          
T        Si     0.125000000000     0.289750000000     0.478550000000     0          
T        Si     0.051475000000     0.162100000000     0.474200000000     0          
T        Si     0.198525000000     0.337900000000     0.224200000000     0          
T        Si     0.051475000000     0.337900000000     0.025800000000     0          
T        Si     0.198525000000     0.162100000000     0.275800000000     0          
T        Si     0.073525000000     0.087900000000     0.525800000000     0          
T        Si     0.051200000000     0.120750000000     0.625000000000     0          
T        Si     0.000000000000     0.039750000000     0.771450000000     0          
T        Si     0.000000000000     0.431300000000     0.625000000000     0          
T        Si     0.176475000000     0.412100000000     0.775800000000     0          
T        Si     0.198800000000     0.379250000000     0.875000000000     0          
T        Si     0.000000000000     0.460250000000     0.521450000000     0          
T        Si     0.000000000000     0.068700000000     0.875000000000     0          
T        Si     0.073525000000     0.412100000000     0.974200000000     0          
T        Si     0.051200000000     0.379250000000     0.875000000000     0          
T        Si     0.000000000000     0.460250000000     0.728550000000     0          
T        Si     0.176475000000     0.087900000000     0.724200000000     0          
T        Si     0.198800000000     0.120750000000     0.625000000000     0          
T        Si     0.000000000000     0.039750000000     0.978550000000     0          
T        Si     0.176475000000     0.412100000000     0.974200000000     0          
T        Si     0.073525000000     0.087900000000     0.724200000000     0          
T        Si     0.176475000000     0.087900000000     0.525800000000     0          
T        Si     0.073525000000     0.412100000000     0.775800000000     0          
T        Si     0.198525000000     0.337900000000     0.525800000000     0          
T        Si     0.176200000000     0.370750000000     0.625000000000     0          
T        Si     0.125000000000     0.289750000000     0.771450000000     0          
T        Si     0.125000000000     0.181300000000     0.625000000000     0          
T        Si     0.051475000000     0.162100000000     0.775800000000     0          
T        Si     0.073800000000     0.129250000000     0.875000000000     0          
T        Si     0.125000000000     0.210250000000     0.521450000000     0          
T        Si     0.125000000000     0.318700000000     0.875000000000     0          
T        Si     0.198525000000     0.162100000000     0.974200000000     0          
T        Si     0.176200000000     0.129250000000     0.875000000000     0          
T        Si     0.125000000000     0.210250000000     0.728550000000     0          
T        Si     0.051475000000     0.337900000000     0.724200000000     0          
T        Si     0.073800000000     0.370750000000     0.625000000000     0          
T        Si     0.125000000000     0.289750000000     0.978550000000     0          
T        Si     0.051475000000     0.162100000000     0.974200000000     0          
T        Si     0.198525000000     0.337900000000     0.724200000000     0          
T        Si     0.051475000000     0.337900000000     0.525800000000     0          
T        Si     0.198525000000     0.162100000000     0.775800000000     0          
T        Si     0.073525000000     0.587900000000     0.025800000000     0          
T        Si     0.051200000000     0.620750000000     0.125000000000     0          
T        Si     0.000000000000     0.539750000000     0.271450000000     0          
T        Si     0.000000000000     0.931300000000     0.125000000000     0          
T        Si     0.176475000000     0.912100000000     0.275800000000     0          
T        Si     0.198800000000     0.879250000000     0.375000000000     0          
T        Si     0.000000000000     0.960250000000     0.021450000000     0          
T        Si     0.000000000000     0.568700000000     0.375000000000     0          
T        Si     0.073525000000     0.912100000000     0.474200000000     0          
T        Si     0.051200000000     0.879250000000     0.375000000000     0          
T        Si     0.000000000000     0.960250000000     0.228550000000     0          
T        Si     0.176475000000     0.587900000000     0.224200000000     0          
T        Si     0.198800000000     0.620750000000     0.125000000000     0          
T        Si     0.000000000000     0.539750000000     0.478550000000     0          
T        Si     0.176475000000     0.912100000000     0.474200000000     0          
T        Si     0.073525000000     0.587900000000     0.224200000000     0          
T        Si     0.176475000000     0.587900000000     0.025800000000     0          
T        Si     0.073525000000     0.912100000000     0.275800000000     0          
T        Si     0.198525000000     0.837900000000     0.025800000000     0          
T        Si     0.176200000000     0.870750000000     0.125000000000     0          
T        Si     0.125000000000     0.789750000000     0.271450000000     0          
T        Si     0.125000000000     0.681300000000     0.125000000000     0          
T        Si     0.051475000000     0.662100000000     0.275800000000     0          
T        Si     0.073800000000     0.629250000000     0.375000000000     0          
T        Si     0.125000000000     0.710250000000     0.021450000000     0          
T        Si     0.125000000000     0.818700000000     0.375000000000     0          
T        Si     0.198525000000     0.662100000000     0.474200000000     0          
T        Si     0.176200000000     0.629250000000     0.375000000000     0          
T        Si     0.125000000000     0.710250000000     0.228550000000     0          
T        Si     0.051475000000     0.837900000000     0.224200000000     0          
T        Si     0.073800000000     0.870750000000     0.125000000000     0          
T        Si     0.125000000000     0.789750000000     0.478550000000     0          
T        Si     0.051475000000     0.662100000000     0.474200000000     0          
T        Si     0.198525000000     0.837900000000     0.224200000000     0          
T        Si     0.051475000000     0.837900000000     0.025800000000     0          
T        Si     0.198525000000     0.662100000000     0.275800000000     0          
T        Si     0.073525000000     0.587900000000     0.525800000000     0          
T        Si     0.051200000000     0.620750000000     0.625000000000     0          
T        Si     0.000000000000     0.539750000000     0.771450000000     0          
T        Si     0.000000000000     0.931300000000     0.625000000000     0          
T        Si     0.176475000000     0.912100000000     0.775800000000     0          
T        Si     0.198800000000     0.879250000000     0.875000000000     0          
T        Si     0.000000000000     0.960250000000     0.521450000000     0          
T        Si     0.000000000000     0.568700000000     0.875000000000     0          
T        Si     0.073525000000     0.912100000000     0.974200000000     0          
T        Si     0.051200000000     0.879250000000     0.875000000000     0          
T        Si     0.000000000000     0.960250000000     0.728550000000     0          
T        Si     0.176475000000     0.587900000000     0.724200000000     0          
T        Si     0.198800000000     0.620750000000     0.625000000000     0          
T        Si     0.000000000000     0.539750000000     0.978550000000     0          
T        Si     0.176475000000     0.912100000000     0.974200000000     0          
T        Si     0.073525000000     0.587900000000     0.724200000000     0          
T        Si     0.176475000000     0.587900000000     0.525800000000     0          
T        Si     0.073525000000     0.912100000000     0.775800000000     0          
T        Si     0.198525000000     0.837900000000     0.525800000000     0          
T        Si     0.176200000000     0.870750000000     0.625000000000     0          
T        Si     0.125000000000     0.789750000000     0.771450000000     0          
T        Si     0.125000000000     0.681300000000     0.625000000000     0          
T        Si     0.051475000000     0.662100000000     0.775800000000     0          
T        Si     0.073800000000     0.629250000000     0.875000000000     0          
T        Si     0.125000000000     0.710250000000     0.521450000000     0          
T        Si     0.125000000000     0.818700000000     0.875000000000     0          
T        Si     0.198525000000     0.662100000000     0.974200000000     0          
T        Si     0.176200000000     0.629250000000     0.875000000000     0          
T        Si     0.125000000000     0.710250000000     0.728550000000     0          
T        Si     0.051475000000     0.837900000000     0.724200000000     0          
T        Si     0.073800000000     0.870750000000     0.625000000000     0          
T        Si     0.125000000000     0.789750000000     0.978550000000     0          
T        Si     0.051475000000     0.662100000000     0.974200000000     0          
T        Si     0.198525000000     0.837900000000     0.724200000000     0          
T        Si     0.051475000000     0.837900000000     0.525800000000     0          
T        Si     0.198525000000     0.662100000000     0.775800000000     0          
T        Si     0.323525000000     0.087900000000     0.025800000000     0          
T        Si     0.301200000000     0.120750000000     0.125000000000     0          
T        Si     0.250000000000     0.039750000000     0.271450000000     0          
T        Si     0.250000000000     0.431300000000     0.125000000000     0          
T        Si     0.426475000000     0.412100000000     0.275800000000     0          
T        Si     0.448800000000     0.379250000000     0.375000000000     0          
T        Si     0.250000000000     0.460250000000     0.021450000000     0          
T        Si     0.250000000000     0.068700000000     0.375000000000     0          
T        Si     0.323525000000     0.412100000000     0.474200000000     0          
T        Si     0.301200000000     0.379250000000     0.375000000000     0          
T        Si     0.250000000000     0.460250000000     0.228550000000     0          
T        Si     0.426475000000     0.087900000000     0.224200000000     0          
T        Si     0.448800000000     0.120750000000     0.125000000000     0          
T        Si     0.250000000000     0.039750000000     0.478550000000     0          
T        Si     0.426475000000     0.412100000000     0.474200000000     0          
T        Si     0.323525000000     0.087900000000     0.224200000000     0          
T        Si     0.426475000000     0.087900000000     0.025800000000     0          
T        Si     0.323525000000     0.412100000000     0.275800000000     0          
T        Si     0.448525000000     0.337900000000     0.025800000000     0          
T        Si     0.426200000000     0.370750000000     0.125000000000     0          
T        Si     0.375000000000     0.289750000000     0.271450000000     0          
T        Si     0.375000000000     0.181300000000     0.125000000000     0          
T        Si     0.301475000000     0.162100000000     0.275800000000     0          
T        Si     0.323800000000     0.129250000000     0.375000000000     0          
T        Si     0.375000000000     0.210250000000     0.021450000000     0          
T        Si     0.375000000000     0.318700000000     0.375000000000     0          
T        Si     0.448525000000     0.162100000000     0.474200000000     0          
T        Si     0.426200000000     0.129250000000     0.375000000000     0          
T        Si     0.375000000000     0.210250000000     0.228550000000     0          
T        Si     0.301475000000     0.337900000000     0.224200000000     0          
T        Si     0.323800000000     0.370750000000     0.125000000000     0          
T        Si     0.375000000000     0.289750000000     0.478550000000     0          
T        Si     0.301475000000     0.162100000000     0.474200000000     0          
T        Si     0.448525000000     0.337900000000     0.224200000000     0          
T        Si     0.301475000000     0.337900000000     0.025800000000     0          
T        Si     0.448525000000     0.162100000000     0.275800000000     0          
T        Si     0.323525000000     0.087900000000     0.525800000000     0          
T        Si     0.301200000000     0.120750000000     0.625000000000     0          
T        Si     0.250000000000     0.039750000000     0.771450000000     0          
T        Si     0.250000000000     0.431300000000     0.625000000000     0          
T        Si     0.426475000000     0.412100000000     0.775800000000     0          
T        Si     0.448800000000     0.379250000000     0.875000000000     0          
T        Si     0.250000000000     0.460250000000     0.521450000000     0          
T        Si     0.250000000000     0.068700000000     0.875000000000     0          
T        Si     0.323525000000     0.412100000000     0.974200000000     0          
T        Si     0.301200000000     0.379250000000     0.875000000000     0          
T        Si     0.250000000000     0.460250000000     0.728550000000     0          
T        Si     0.426475000000     0.087900000000     0.724200000000     0          
T        Si     0.448800000000     0.120750000000     0.625000000000     0          
T        Si     0.250000000000     0.039750000000     0.978550000000     0          
T        Si     0.426475000000     0.412100000000     0.974200000000     0          
T        Si     0.323525000000     0.087900000000     0.724200000000     0          
T        Si     0.426475000000     0.087900000000     0.525800000000     0          
T        Si     0.323525000000     0.412100000000     0.775800000000     0          
T        Si     0.448525000000     0.337900000000     0.525800000000     0          
T        Si     0.426200000000     0.370750000000     0.625000000000     0          
T        Si     0.375000000000     0.289750000000     0.771450000000     0          
T        Si     0.375000000000     0.181300000000     0.625000000000     0          
T        Si     0.301475000000     0.162100000000     0.775800000000     0          
T        Si     0.323800000000     0.129250000000     0.875000000000     0          
T        Si     0.375000000000     0.210250000000     0.521450000000     0          
T        Si     0.375000000000     0.318700000000     0.875000000000     0          
T        Si     0.448525000000     0.162100000000     0.974200000000     0          
T        Si     0.426200000000     0.129250000000     0.875000000000     0          
T        Si     0.375000000000     0.210250000000     0.728550000000     0          
T        Si     0.301475000000     0.337900000000     0.724200000000     0          
T        Si     0.323800000000     0.370750000000     0.625000000000     0          
T        Si     0.375000000000     0.289750000000     0.978550000000     0          
T        Si     0.301475000000     0.162100000000     0.974200000000     0          
T        Si     0.448525000000     0.337900000000     0.724200000000     0          
T        Si     0.301475000000     0.337900000000     0.525800000000     0          
T        Si     0.448525000000     0.162100000000     0.775800000000     0          
T        Si     0.323525000000     0.587900000000     0.025800000000     0          
T        Si     0.301200000000     0.620750000000     0.125000000000     0          
T        Si     0.250000000000     0.539750000000     0.271450000000     0          
T        Si     0.250000000000     0.931300000000     0.125000000000     0          
T        Si     0.426475000000     0.912100000000     0.275800000000     0          
T        Si     0.448800000000     0.879250000000     0.375000000000     0          
T        Si     0.250000000000     0.960250000000     0.021450000000     0          
T        Si     0.250000000000     0.568700000000     0.375000000000     0          
T        Si     0.323525000000     0.912100000000     0.474200000000     0          
T        Si     0.301200000000     0.879250000000     0.375000000000     0          
T        Si     0.250000000000     0.960250000000     0.228550000000     0          
T        Si     0.426475000000     0.587900000000     0.224200000000     0          
T        Si     0.448800000000     0.620750000000     0.125000000000     0          
T        Si     0.250000000000     0.539750000000     0.478550000000     0          
T        Si     0.426475000000     0.912100000000     0.474200000000     0          
T        Si     0.323525000000     0.587900000000     0.224200000000     0          
T        Si     0.426475000000     0.587900000000     0.025800000000     0          
T        Si     0.323525000000     0.912100000000     0.275800000000     0          
T        Si     0.448525000000     0.837900000000     0.025800000000     0          
T        Si     0.426200000000     0.870750000000     0.125000000000     0          
T        Si     0.375000000000     0.789750000000     0.271450000000     0          
T        Si     0.375000000000     0.681300000000     0.125000000000     0          
T        Si     0.301475000000     0.662100000000     0.275800000000     0          
T        Si     0.323800000000     0.629250000000     0.375000000000     0          
T        Si     0.375000000000     0.710250000000     0.021450000000     0          
T        Si     0.375000000000     0.818700000000     0.375000000000     0          
T        Si     0.448525000000     0.662100000000     0.474200000000     0          
T        Si     0.426200000000     0.629250000000     0.375000000000     0          
T        Si     0.375000000000     0.710250000000     0.228550000000     0          
T        Si     0.301475000000     0.837900000000     0.224200000000     0          
T        Si     0.323800000000     0.870750000000     0.125000000000     0          
T        Si     0.375000000000     0.789750000000     0.478550000000     0          
T        Si     0.301475000000     0.662100000000     0.474200000000     0          
T        Si     0.448525000000     0.837900000000     0.224200000000     0          
T        Si     0.301475000000     0.837900000000     0.025800000000     0          
T        Si     0.448525000000     0.662100000000     0.275800000000     0          
T        Si     0.323525000000     0.587900000000     0.525800000000     0          
T        Si     0.301200000000     0.620750000000     0.625000000000     0          
T        Si     0.250000000000     0.539750000000     0.771450000000     0          
T        Si     0.250000000000     0.931300000000     0.625000000000     0          
T        Si     0.426475000000     0.912100000000     0.775800000000     0          
T        Si     0.448800000000     0.879250000000     0.875000000000     0          
T        Si     0.250000000000     0.960250000000     0.521450000000     0          
T        Si     0.250000000000     0.568700000000     0.875000000000     0          
T        Si     0.323525000000     0.912100000000     0.974200000000     0          
T        Si     0.301200000000     0.879250000000     0.875000000000     0          
T        Si     0.250000000000     0.960250000000     0.728550000000     0          
T        Si     0.426475000000     0.587900000000     0.724200000000     0          
T        Si     0.448800000000     0.620750000000     0.625000000000     0          
T        Si     0.250000000000     0.539750000000     0.978550000000     0          
T        Si     0.426475000000     0.912100000000     0.974200000000     0          
T        Si     0.323525000000     0.587900000000     0.724200000000     0          
T        Si     0.426475000000     0.587900000000     0.525800000000     0          
T        Si     0.323525000000     0.912100000000     0.775800000000     0          
T        Si     0.448525000000     0.837900000000     0.525800000000     0          
T        Si     0.426200000000     0.870750000000     0.625000000000     0          
T        Si     0.375000000000     0.789750000000     0.771450000000     0          
T        Si     0.375000000000     0.681300000000     0.625000000000     0          
T        Si     0.301475000000     0.662100000000     0.775800000000     0          
T        Si     0.323800000000     0.629250000000     0.875000000000     0          
T        Si     0.375000000000     0.710250000000     0.521450000000     0          
T        Si     0.375000000000     0.818700000000     0.875000000000     0          
T        Si     0.448525000000     0.662100000000     0.974200000000     0          
T        Si     0.426200000000     0.629250000000     0.875000000000     0          
T        Si     0.375000000000     0.710250000000     0.728550000000     0          
T        Si     0.301475000000     0.837900000000     0.724200000000     0          
T        Si     0.323800000000     0.870750000000     0.625000000000     0          
T        Si     0.375000000000     0.789750000000     0.978550000000     0          
T        Si     0.301475000000     0.662100000000     0.974200000000     0          
T        Si     0.448525000000     0.837900000000     0.724200000000     0          
T        Si     0.301475000000     0.837900000000     0.525800000000     0          
T        Si     0.448525000000     0.662100000000     0.775800000000     0          
T        Si     0.573525000000     0.087900000000     0.025800000000     0          
T        Si     0.551200000000     0.120750000000     0.125000000000     0          
T        Si     0.500000000000     0.039750000000     0.271450000000     0          
T        Si     0.500000000000     0.431300000000     0.125000000000     0          
T        Si     0.676475000000     0.412100000000     0.275800000000     0          
T        Si     0.698800000000     0.379250000000     0.375000000000     0          
T        Si     0.500000000000     0.460250000000     0.021450000000     0          
T        Si     0.500000000000     0.068700000000     0.375000000000     0          
T        Si     0.573525000000     0.412100000000     0.474200000000     0          
T        Si     0.551200000000     0.379250000000     0.375000000000     0          
T        Si     0.500000000000     0.460250000000     0.228550000000     0          
T        Si     0.676475000000     0.087900000000     0.224200000000     0          
T        Si     0.698800000000     0.120750000000     0.125000000000     0          
T        Si     0.500000000000     0.039750000000     0.478550000000     0          
T        Si     0.676475000000     0.412100000000     0.474200000000     0          
T        Si     0.573525000000     0.087900000000     0.224200000000     0          
T        Si     0.676475000000     0.087900000000     0.025800000000     0          
T        Si     0.573525000000     0.412100000000     0.275800000000     0          
T        Si     0.698525000000     0.337900000000     0.025800000000     0          
T        Si     0.676200000000     0.370750000000     0.125000000000     0          
T        Si     0.625000000000     0.289750000000     0.271450000000     0          
T        Si     0.625000000000     0.181300000000     0.125000000000     0          
T        Si     0.551475000000     0.162100000000     0.275800000000     0          
T        Si     0.573800000000     0.129250000000     0.375000000000     0          
T        Si     0.625000000000     0.210250000000     0.021450000000     0          
T        Si     0.625000000000     0.318700000000     0.375000000000     0          
T        Si     0.698525000000     0.162100000000     0.474200000000     0          
T        Si     0.676200000000     0.129250000000     0.375000000000     0          
T        Si     0.625000000000     0.210250000000     0.228550000000     0          
T        Si     0.551475000000     0.337900000000     0.224200000000     0          
T        Si     0.573800000000     0.370750000000     0.125000000000     0          
T        Si     0.625000000000     0.289750000000     0.478550000000     0          
T        Si     0.551475000000     0.162100000000     0.474200000000     0          
T        Si     0.698525000000     0.337900000000     0.224200000000     0          
T        Si     0.551475000000     0.337900000000     0.025800000000     0          
T        Si     0.698525000000     0.162100000000     0.275800000000     0          
T        Si     0.573525000000     0.087900000000     0.525800000000     0          
T        Si     0.551200000000     0.120750000000     0.625000000000     0          
T        Si     0.500000000000     0.039750000000     0.771450000000     0          
T        Si     0.500000000000     0.431300000000     0.625000000000     0          
T        Si     0.676475000000     0.412100000000     0.775800000000     0          
T        Si     0.698800000000     0.379250000000     0.875000000000     0          
T        Si     0.500000000000     0.460250000000     0.521450000000     0          
T        Si     0.500000000000     0.068700000000     0.875000000000     0          
T        Si     0.573525000000     0.412100000000     0.974200000000     0          
T        Si     0.551200000000     0.379250000000     0.875000000000     0          
T        Si     0.500000000000     0.460250000000     0.728550000000     0          
T        Si     0.676475000000     0.087900000000     0.724200000000     0          
T        Si     0.698800000000     0.120750000000     0.625000000000     0          
T        Si     0.500000000000     0.039750000000     0.978550000000     0          
T        Si     0.676475000000     0.412100000000     0.974200000000     0          
T        Si     0.573525000000     0.087900000000     0.724200000000     0          
T        Si     0.676475000000     0.087900000000     0.525800000000     0          
T        Si     0.573525000000     0.412100000000     0.775800000000     0          
T        Si     0.698525000000     0.337900000000     0.525800000000     0          
T        Si     0.676200000000     0.370750000000     0.625000000000     0          
T        Si     0.625000000000     0.289750000000     0.771450000000     0          
T        Si     0.625000000000     0.181300000000     0.625000000000     0          
T        Si     0.551475000000     0.162100000000     0.775800000000     0          
T        Si     0.573800000000     0.129250000000     0.875000000000     0          
T        Si     0.625000000000     0.210250000000     0.521450000000     0          
T        Si     0.625000000000     0.318700000000     0.875000000000     0          
T        Si     0.698525000000     0.162100000000     0.974200000000     0          
T        Si     0.676200000000     0.129250000000     0.875000000000     0          
T        Si     0.625000000000     0.210250000000     0.728550000000     0          
T        Si     0.551475000000     0.337900000000     0.724200000000     0          
T        Si     0.573800000000     0.370750000000     0.625000000000     0          
T        Si     0.625000000000     0.289750000000     0.978550000000     0          
T        Si     0.551475000000     0.162100000000     0.974200000000     0          
T        Si     0.698525000000     0.337900000000     0.724200000000     0          
T        Si     0.551475000000     0.337900000000     0.525800000000     0          
T        Si     0.698525000000     0.162100000000     0.775800000000     0          
T        Si     0.573525000000     0.587900000000     0.025800000000     0          
T        Si     0.551200000000     0.620750000000     0.125000000000     0          
T        Si     0.500000000000     0.539750000000     0.271450000000     0          
T        Si     0.500000000000     0.931300000000     0.125000000000     0          
T        Si     0.676475000000     0.912100000000     0.275800000000     0          
T        Si     0.698800000000     0.879250000000     0.375000000000     0          
T        Si     0.500000000000     0.960250000000     0.021450000000     0          
T        Si     0.500000000000     0.568700000000     0.375000000000     0          
T        Si     0.573525000000     0.912100000000     0.474200000000     0          
T        Si     0.551200000000     0.879250000000     0.375000000000     0          
T        Si     0.500000000000     0.960250000000     0.228550000000     0          
T        Si     0.676475000000     0.587900000000     0.224200000000     0          
T        Si     0.698800000000     0.620750000000     0.125000000000     0          
T        Si     0.500000000000     0.539750000000     0.478550000000     0          
T        Si     0.676475000000     0.912100000000     0.474200000000     0          
T        Si     0.573525000000     0.587900000000     0.224200000000     0          
T        Si     0.676475000000     0.587900000000     0.025800000000     0          
T        Si     0.573525000000     0.912100000000     0.275800000000     0          
T        Si     0.698525000000     0.837900000000     0.025800000000     0          
T        Si     0.676200000000     0.870750000000     0.125000000000     0          
T        Si     0.625000000000     0.789750000000     0.271450000000     0          
T        Si     0.625000000000     0.681300000000     0.125000000000     0          
T        Si     0.551475000000     0.662100000000     0.275800000000     0          
T        Si     0.573800000000     0.629250000000     0.375000000000     0          
T        Si     0.625000000000     0.710250000000     0.021450000000     0          
T        Si     0.625000000000     0.818700000000     0.375000000000     0          
T        Si     0.698525000000     0.662100000000     0.474200000000     0          
T        Si     0.676200000000     0.629250000000     0.375000000000     0          
T        Si     0.625000000000     0.710250000000     0.228550000000     0          
T        Si     0.551475000000     0.837900000000     0.224200000000     0          
T        Si     0.573800000000     0.870750000000     0.125000000000     0          
T        Si     0.625000000000     0.789750000000     0.478550000000     0          
T        Si     0.551475000000     0.662100000000     0.474200000000     0          
T        Si     0.698525000000     0.837900000000     0.224200000000     0          
T        Si     0.551475000000     0.837900000000     0.025800000000     0          
T        Si     0.698525000000     0.662100000000     0.275800000000     0          
T        Si     0.573525000000     0.587900000000     0.525800000000     0          
T        Si     0.551200000000     0.620750000000     0.625000000000     0          
T        Si     0.500000000000     0.539750000000     0.771450000000     0          
T        Si     0.500000000000     0.931300000000     0.625000000000     0          
T        Si     0.676475000000     0.912100000000     0.775800000000     0          
T        Si     0.698800000000     0.879250000000     0.875000000000     0          
T        Si     0.500000000000     0.960250000000     0.521450000000     0          
T        Si     0.500000000000     0.568700000000     0.875000000000     0          
T        Si     0.573525000000     0.912100000000     0.974200000000     0          
T        Si     0.551200000000     0.879250000000     0.875000000000     0          
T        Si     0.500000000000     0.960250000000     0.728550000000     0          
T        Si     0.676475000000     0.587900000000     0.724200000000     0          
T        Si     0.698800000000     0.620750000000     0.625000000000     0          
T        Si     0.500000000000     0.539750000000     0.978550000000     0          
T        Si     0.676475000000     0.912100000000     0.974200000000     0          
T        Si     0.573525000000     0.587900000000     0.724200000000     0          
T        Si     0.676475000000     0.587900000000     0.525800000000     0          
T        Si     0.573525000000     0.912100000000     0.775800000000     0          
T        Si     0.698525000000     0.837900000000     0.525800000000     0          
T        Si     0.676200000000     0.870750000000     0.625000000000     0          
T        Si     0.625000000000     0.789750000000     0.771450000000     0          
T        Si     0.625000000000     0.681300000000     0.625000000000     0          
T        Si     0.551475000000     0.662100000000     0.775800000000     0          
T        Si     0.573800000000     0.629250000000     0.875000000000     0          
T        Si     0.625000000000     0.710250000000     0.521450000000     0          
T        Si     0.625000000000     0.818700000000     0.875000000000     0          
T        Si     0.698525000000     0.662100000000     0.974200000000     0          
T        Si     0.676200000000     0.629250000000     0.875000000000     0          
T        Si     0.625000000000     0.710250000000     0.728550000000     0          
T        Si     0.551475000000     0.837900000000     0.724200000000     0          
T        Si     0.573800000000     0.870750000000     0.625000000000     0          
T        Si     0.625000000000     0.789750000000     0.978550000000     0          
T        Si     0.551475000000     0.662100000000     0.974200000000     0          
T        Si     0.698525000000     0.837900000000     0.724200000000     0          
T        Si     0.551475000000     0.837900000000     0.525800000000     0          
T        Si     0.698525000000     0.662100000000     0.775800000000     0          
T        Si     0.823525000000     0.087900000000     0.025800000000     0          
T        Si     0.801200000000     0.120750000000     0.125000000000     0          
T        Si     0.750000000000     0.039750000000     0.271450000000     0          
T        Si     0.750000000000     0.431300000000     0.125000000000     0          
T        Si     0.926475000000     0.412100000000     0.275800000000     0          
T        Si     0.948800000000     0.379250000000     0.375000000000     0          
T        Si     0.750000000000     0.460250000000     0.021450000000     0          
T        Si     0.750000000000     0.068700000000     0.375000000000     0          
T        Si     0.823525000000     0.412100000000     0.474200000000     0          
T        Si     0.801200000000     0.379250000000     0.375000000000     0          
T        Si     0.750000000000     0.460250000000     0.228550000000     0          
T        Si     0.926475000000     0.087900000000     0.224200000000     0          
T        Si     0.948800000000     0.120750000000     0.125000000000     0          
T        Si     0.750000000000     0.039750000000     0.478550000000     0          
T        Si     0.926475000000     0.412100000000     0.474200000000     0          
T        Si     0.823525000000     0.087900000000     0.224200000000     0          
T        Si     0.926475000000     0.087900000000     0.025800000000     0          
T        Si     0.823525000000     0.412100000000     0.275800000000     0          
T        Si     0.948525000000     0.337900000000     0.025800000000     0          
T        Si     0.926200000000     0.370750000000     0.125000000000     0          
T        Si     0.875000000000     0.289750000000     0.271450000000     0          
T        Si     0.875000000000     0.181300000000     0.125000000000     0          
T        Si     0.801475000000     0.162100000000     0.275800000000     0          
T        Si     0.823800000000     0.129250000000     0.375000000000     0          
T        Si     0.875000000000     0.210250000000     0.021450000000     0          
T        Si     0.875000000000     0.318700000000     0.375000000000     0          
T        Si     0.948525000000     0.162100000000     0.474200000000     0          
T        Si     0.926200000000     0.129250000000     0.375000000000     0          
T        Si     0.875000000000     0.210250000000     0.228550000000     0          
T        Si     0.801475000000     0.337900000000     0.224200000000     0          
T        Si     0.823800000000     0.370750000000     0.125000000000     0          
T        Si     0.875000000000     0.289750000000     0.478550000000     0          
T        Si     0.801475000000     0.162100000000     0.474200000000     0          
T        Si     0.948525000000     0.337900000000     0.224200000000     0          
T        Si     0.801475000000     0.337900000000     0.025800000000     0          
T        Si     0.948525000000     0.162100000000     0.275800000000     0          
T        Si     0.823525000000     0.087900000000     0.525800000000     0          
T        Si     0.801200000000     0.120750000000     0.625000000000     0          
T        Si     0.750000000000     0.039750000000     0.771450000000     0          
T        Si     0.750000000000     0.431300000000     0.625000000000     0          
T        Si     0.926475000000     0.412100000000     0.775800000000     0          
T        Si     0.948800000000     0.379250000000     0.875000000000     0          
T        Si     0.750000000000     0.460250000000     0.521450000000     0          
T        Si     0.750000000000     0.068700000000     0.875000000000     0          
T        Si     0.823525000000     0.412100000000     0.974200000000     0          
T        Si     0.801200000000     0.379250000000     0.875000000000     0          
T        Si     0.750000000000     0.460250000000     0.728550000000     0          
T        Si     0.926475000000     0.087900000000     0.724200000000     0          
T        Si     0.948800000000     0.120750000000     0.625000000000     0          
T        Si     0.750000000000     0.039750000000     0.978550000000     0          
T        Si     0.926475000000     0.412100000000     0.974200000000     0          
T        Si     0.823525000000     0.087900000000     0.724200000000     0          
T        Si     0.926475000000     0.087900000000     0.525800000000     0          
T        Si     0.823525000000     0.412100000000     0.775800000000     0          
T        Si     0.948525000000     0.337900000000     0.525800000000     0          
T        Si     0.926200000000     0.370750000000     0.625000000000     0          
T        Si     0.875000000000     0.289750000000     0.771450000000     0          
T        Si     0.875000000000     0.181300000000     0.625000000000     0          
T        Si     0.801475000000     0.162100000000     0.775800000000     0          
T        Si     0.823800000000     0.129250000000     0.875000000000     0          
T        Si     0.875000000000     0.210250000000     0.521450000000     0          
T        Si     0.875000000000     0.318700000000     0.875000000000     0          
T        Si     0.948525000000     0.162100000000     0.974200000000     0          
T        Si     0.926200000000     0.129250000000     0.875000000000     0          
T        Si     0.875000000000     0.210250000000     0.728550000000     0          
T        Si     0.801475000000     0.337900000000     0.724200000000     0          
T        Si     0.823800000000     0.370750000000     0.625000000000     0          
T        Si     0.875000000000     0.289750000000     0.978550000000     0          
T        Si     0.801475000000     0.162100000000     0.974200000000     0          
T        Si     0.948525000000     0.337900000000     0.724200000000     0          
T        Si     0.801475000000     0.337900000000     0.525800000000     0          
T        Si     0.948525000000     0.162100000000     0.775800000000     0          
T        Si     0.823525000000     0.587900000000     0.025800000000     0          
T        Si     0.801200000000     0.620750000000     0.125000000000     0          
T        Si     0.750000000000     0.539750000000     0.271450000000     0          
T        Si     0.750000000000     0.931300000000     0.125000000000     0          
T        Si     0.926475000000     0.912100000000     0.275800000000     0          
T        Si     0.948800000000     0.879250000000     0.375000000000     0          
T        Si     0.750000000000     0.960250000000     0.021450000000     0          
T        Si     0.750000000000     0.568700000000     0.375000000000     0          
T        Si     0.823525000000     0.912100000000     0.474200000000     0          
T        Si     0.801200000000     0.879250000000     0.375000000000     0          
T        Si     0.750000000000     0.960250000000     0.228550000000     0          
T        Si     0.926475000000     0.587900000000     0.224200000000     0          
T        Si     0.948800000000     0.620750000000     0.125000000000     0          
T        Si     0.750000000000     0.539750000000     0.478550000000     0          
T        Si     0.926475000000     0.912100000000     0.474200000000     0          
T        Si     0.823525000000     0.587900000000     0.224200000000     0          
T        Si     0.926475000000     0.587900000000     0.025800000000     0          
T        Si     0.823525000000     0.912100000000     0.275800000000     0          
T        Si     0.948525000000     0.837900000000     0.025800000000     0          
T        Si     0.926200000000     0.870750000000     0.125000000000     0          
T        Si     0.875000000000     0.789750000000     0.271450000000     0          
T        Si     0.875000000000     0.681300000000     0.125000000000     0          
T        Si     0.801475000000     0.662100000000     0.275800000000     0          
T        Si     0.823800000000     0.629250000000     0.375000000000     0          
T        Si     0.875000000000     0.710250000000     0.021450000000     0          
T        Si     0.875000000000     0.818700000000     0.375000000000     0          
T        Si     0.948525000000     0.662100000000     0.474200000000     0          
T        Si     0.926200000000     0.629250000000     0.375000000000     0          
T        Si     0.875000000000     0.710250000000     0.228550000000     0          
T        Si     0.801475000000     0.837900000000     0.224200000000     0          
T        Si     0.823800000000     0.870750000000     0.125000000000     0          
T        Si     0.875000000000     0.789750000000     0.478550000000     0          
T        Si     0.801475000000     0.662100000000     0.474200000000     0          
T        Si     0.948525000000     0.837900000000     0.224200000000     0          
T        Si     0.801475000000     0.837900000000     0.025800000000     0          
T        Si     0.948525000000     0.662100000000     0.275800000000     0          
T        Si     0.823525000000     0.587900000000     0.525800000000     0          
T        Si     0.801200000000     0.620750000000     0.625000000000     0          
T        Si     0.750000000000     0.539750000000     0.771450000000     0          
T        Si     0.750000000000     0.931300000000     0.625000000000     0          
T        Si     0.926475000000     0.912100000000     0.775800000000     0          
T        Si     0.948800000000     0.879250000000     0.875000000000     0          
T        Si     0.750000000000     0.960250000000     0.521450000000     0          
T        Si     0.750000000000     0.568700000000     0.875000000000     0          
T        Si     0.823525000000     0.912100000000     0.974200000000     0          
T        Si     0.801200000000     0.879250000000     0.875000000000     0          
T        Si     0.750000000000     0.960250000000     0.728550000000     0          
T        Si     0.926475000000     0.587900000000     0.724200000000     0          
T        Si     0.948800000000     0.620750000000     0.625000000000     0          
T        Si     0.750000000000     0.539750000000     0.978550000000     0          
T        Si     0.926475000000     0.912100000000     0.974200000000     0          
T        Si     0.823525000000     0.587900000000     0.724200000000     0          
T        Si     0.926475000000     0.587900000000     0.525800000000     0          
T        Si     0.823525000000     0.912100000000     0.775800000000     0          
T        Si     0.948525000000     0.837900000000     0.525800000000     0          
T        Si     0.926200000000     0.870750000000     0.625000000000     0          
T        Si     0.875000000000     0.789750000000     0.771450000000     0          
T        Si     0.875000000000     0.681300000000     0.625000000000     0          
T        Si     0.801475000000     0.662100000000     0.775800000000     0          
T        Si     0.823800000000     0.629250000000     0.875000000000     0          
T        Si     0.875000000000     0.710250000000     0.521450000000     0          
T        Si     0.875000000000     0.818700000000     0.875000000000     0          
T        Si     0.948525000000     0.662100000000     0.974200000000     0          
T        Si     0.926200000000     0.629250000000     0.875000000000     0          
T        Si     0.875000000000     0.710250000000     0.728550000000     0          
T        Si     0.801475000000     0.837900000000     0.724200000000     0          
T        Si     0.823800000000     0.870750000000     0.625000000000     0          
T        Si     0.875000000000     0.789750000000     0.978550000000     0          
T        Si     0.801475000000     0.662100000000     0.974200000000     0          
T        Si     0.948525000000     0.837900000000     0.724200000000     0          
T        Si     0.801475000000     0.837900000000     0.525800000000     0          
T        Si     0.948525000000     0.662100000000     0.775800000000     0          
O        O      0.062500000000     0.125000000000     0.000000000000     0          
O        O      0.043600000000     0.057850000000     0.000800000000     0          
O        O      0.125000000000     0.077750000000     0.021400000000     0          
O        O      0.059750000000     0.095150000000     0.080000000000     0          
O        O      0.081925000000     0.155900000000     0.125000000000     0          
O        O      0.000000000000     0.132700000000     0.125000000000     0          
O        O      0.000000000000     0.000000000000     0.250000000000     0          
O        O      0.000000000000     0.043750000000     0.328250000000     0          
O        O      0.187500000000     0.375000000000     0.250000000000     0          
O        O      0.206400000000     0.442150000000     0.250800000000     0          
O        O      0.125000000000     0.422250000000     0.271400000000     0          
O        O      0.190250000000     0.404850000000     0.330000000000     0          
O        O      0.168075000000     0.344100000000     0.375000000000     0          
O        O      0.000000000000     0.367300000000     0.375000000000     0          
O        O      0.000000000000     0.000000000000     0.000000000000     0          
O        O      0.000000000000     0.456250000000     0.078250000000     0          
O        O      0.062500000000     0.375000000000     0.000000000000     0          
O        O      0.043600000000     0.442150000000     0.499200000000     0          
O        O      0.125000000000     0.422250000000     0.478600000000     0          
O        O      0.059750000000     0.404850000000     0.420000000000     0          
O        O      0.081925000000     0.344100000000     0.375000000000     0          
O        O      0.000000000000     0.456250000000     0.171750000000     0          
O        O      0.187500000000     0.125000000000     0.250000000000     0          
O        O      0.206400000000     0.057850000000     0.249200000000     0          
O        O      0.125000000000     0.077750000000     0.228600000000     0          
O        O      0.190250000000     0.095150000000     0.170000000000     0          
O        O      0.168075000000     0.155900000000     0.125000000000     0          
O        O      0.000000000000     0.043750000000     0.421750000000     0          
O        O      0.187500000000     0.375000000000     0.000000000000     0          
O        O      0.206400000000     0.442150000000     0.499200000000     0          
O        O      0.190250000000     0.404850000000     0.420000000000     0          
O        O      0.062500000000     0.125000000000     0.250000000000     0          
O        O      0.043600000000     0.057850000000     0.249200000000     0          
O        O      0.059750000000     0.095150000000     0.170000000000     0          
O        O      0.187500000000     0.125000000000     0.000000000000     0          
O        O      0.206400000000     0.057850000000     0.000800000000     0          
O        O      0.190250000000     0.095150000000     0.080000000000     0          
O        O      0.062500000000     0.375000000000     0.250000000000     0          
O        O      0.043600000000     0.442150000000     0.250800000000     0          
O        O      0.059750000000     0.404850000000     0.330000000000     0          
O        O      0.168600000000     0.307850000000     0.000800000000     0          
O        O      0.000000000000     0.327750000000     0.021400000000     0          
O        O      0.184750000000     0.345150000000     0.080000000000     0          
O        O      0.206925000000     0.405900000000     0.125000000000     0          
O        O      0.125000000000     0.382700000000     0.125000000000     0          
O        O      0.125000000000     0.250000000000     0.250000000000     0          
O        O      0.125000000000     0.293750000000     0.328250000000     0          
O        O      0.081400000000     0.192150000000     0.250800000000     0          
O        O      0.000000000000     0.172250000000     0.271400000000     0          
O        O      0.065250000000     0.154850000000     0.330000000000     0          
O        O      0.043075000000     0.094100000000     0.375000000000     0          
O        O      0.125000000000     0.117300000000     0.375000000000     0          
O        O      0.125000000000     0.250000000000     0.000000000000     0          
O        O      0.125000000000     0.206250000000     0.078250000000     0          
O        O      0.168600000000     0.192150000000     0.499200000000     0          
O        O      0.000000000000     0.172250000000     0.478600000000     0          
O        O      0.184750000000     0.154850000000     0.420000000000     0          
O        O      0.206925000000     0.094100000000     0.375000000000     0          
O        O      0.125000000000     0.206250000000     0.171750000000     0          
O        O      0.081400000000     0.307850000000     0.249200000000     0          
O        O      0.000000000000     0.327750000000     0.228600000000     0          
O        O      0.065250000000     0.345150000000     0.170000000000     0          
O        O      0.043075000000     0.405900000000     0.125000000000     0          
O        O      0.125000000000     0.293750000000     0.421750000000     0          
O        O      0.081400000000     0.192150000000     0.499200000000     0          
O        O      0.065250000000     0.154850000000     0.420000000000     0          
O        O      0.168600000000     0.307850000000     0.249200000000     0          
O        O      0.184750000000     0.345150000000     0.170000000000     0          
O        O      0.081400000000     0.307850000000     0.000800000000     0          
O        O      0.065250000000     0.345150000000     0.080000000000     0          
O        O      0.168600000000     0.192150000000     0.250800000000     0          
O        O      0.184750000000     0.154850000000     0.330000000000     0          
O        O      0.062500000000     0.125000000000     0.500000000000     0          
O        O      0.043600000000     0.057850000000     0.500800000000     0          
O        O      0.125000000000     0.077750000000     0.521400000000     0          
O        O      0.059750000000     0.095150000000     0.580000000000     0          
O        O      0.081925000000     0.155900000000     0.625000000000     0          
O        O      0.000000000000     0.132700000000     0.625000000000     0          
O        O      0.000000000000     0.000000000000     0.750000000000     0          
O        O      0.000000000000     0.043750000000     0.828250000000     0          
O        O      0.187500000000     0.375000000000     0.750000000000     0          
O        O      0.206400000000     0.442150000000     0.750800000000     0          
O        O      0.125000000000     0.422250000000     0.771400000000     0          
O        O      0.190250000000     0.404850000000     0.830000000000     0          
O        O      0.168075000000     0.344100000000     0.875000000000     0          
O        O      0.000000000000     0.367300000000     0.875000000000     0          
O        O      0.000000000000     0.000000000000     0.500000000000     0          
O        O      0.000000000000     0.456250000000     0.578250000000     0          
O        O      0.062500000000     0.375000000000     0.500000000000     0          
O        O      0.043600000000     0.442150000000     0.999200000000     0          
O        O      0.125000000000     0.422250000000     0.978600000000     0          
O        O      0.059750000000     0.404850000000     0.920000000000     0          
O        O      0.081925000000     0.344100000000     0.875000000000     0          
O        O      0.000000000000     0.456250000000     0.671750000000     0          
O        O      0.187500000000     0.125000000000     0.750000000000     0          
O        O      0.206400000000     0.057850000000     0.749200000000     0          
O        O      0.125000000000     0.077750000000     0.728600000000     0          
O        O      0.190250000000     0.095150000000     0.670000000000     0          
O        O      0.168075000000     0.155900000000     0.625000000000     0          
O        O      0.000000000000     0.043750000000     0.921750000000     0          
O        O      0.187500000000     0.375000000000     0.500000000000     0          
O        O      0.206400000000     0.442150000000     0.999200000000     0          
O        O      0.190250000000     0.404850000000     0.920000000000     0          
O        O      0.062500000000     0.125000000000     0.750000000000     0          
O        O      0.043600000000     0.057850000000     0.749200000000     0          
O        O      0.059750000000     0.095150000000     0.670000000000     0          
O        O      0.187500000000     0.125000000000     0.500000000000     0          
O        O      0.206400000000     0.057850000000     0.500800000000     0          
O        O      0.190250000000     0.095150000000     0.580000000000     0          
O        O      0.062500000000     0.375000000000     0.750000000000     0          
O        O      0.043600000000     0.442150000000     0.750800000000     0          
O        O      0.059750000000     0.404850000000     0.830000000000     0          
O        O      0.168600000000     0.307850000000     0.500800000000     0          
O        O      0.000000000000     0.327750000000     0.521400000000     0          
O        O      0.184750000000     0.345150000000     0.580000000000     0          
O        O      0.206925000000     0.405900000000     0.625000000000     0          
O        O      0.125000000000     0.382700000000     0.625000000000     0          
O        O      0.125000000000     0.250000000000     0.750000000000     0          
O        O      0.125000000000     0.293750000000     0.828250000000     0          
O        O      0.081400000000     0.192150000000     0.750800000000     0          
O        O      0.000000000000     0.172250000000     0.771400000000     0          
O        O      0.065250000000     0.154850000000     0.830000000000     0          
O        O      0.043075000000     0.094100000000     0.875000000000     0          
O        O      0.125000000000     0.117300000000     0.875000000000     0          
O        O      0.125000000000     0.250000000000     0.500000000000     0          
O        O      0.125000000000     0.206250000000     0.578250000000     0          
O        O      0.168600000000     0.192150000000     0.999200000000     0          
O        O      0.000000000000     0.172250000000     0.978600000000     0          
O        O      0.184750000000     0.154850000000     0.920000000000     0          
O        O      0.206925000000     0.094100000000     0.875000000000     0          
O        O      0.125000000000     0.206250000000     0.671750000000     0          
O        O      0.081400000000     0.307850000000     0.749200000000     0          
O        O      0.000000000000     0.327750000000     0.728600000000     0          
O        O      0.065250000000     0.345150000000     0.670000000000     0          
O        O      0.043075000000     0.405900000000     0.625000000000     0          
O        O      0.125000000000     0.293750000000     0.921750000000     0          
O        O      0.081400000000     0.192150000000     0.999200000000     0          
O        O      0.065250000000     0.154850000000     0.920000000000     0          
O        O      0.168600000000     0.307850000000     0.749200000000     0          
O        O      0.184750000000     0.345150000000     0.670000000000     0          
O        O      0.081400000000     0.307850000000     0.500800000000     0          
O        O      0.065250000000     0.345150000000     0.580000000000     0          
O        O      0.168600000000     0.192150000000     0.750800000000     0          
O        O      0.184750000000     0.154850000000     0.830000000000     0          
O        O      0.062500000000     0.625000000000     0.000000000000     0          
O        O      0.043600000000     0.557850000000     0.000800000000     0          
O        O      0.125000000000     0.577750000000     0.021400000000     0          
O        O      0.059750000000     0.595150000000     0.080000000000     0          
O        O      0.081925000000     0.655900000000     0.125000000000     0          
O        O      0.000000000000     0.632700000000     0.125000000000     0          
O        O      0.000000000000     0.500000000000     0.250000000000     0          
O        O      0.000000000000     0.543750000000     0.328250000000     0          
O        O      0.187500000000     0.875000000000     0.250000000000     0          
O        O      0.206400000000     0.942150000000     0.250800000000     0          
O        O      0.125000000000     0.922250000000     0.271400000000     0          
O        O      0.190250000000     0.904850000000     0.330000000000     0          
O        O      0.168075000000     0.844100000000     0.375000000000     0          
O        O      0.000000000000     0.867300000000     0.375000000000     0          
O        O      0.000000000000     0.500000000000     0.000000000000     0          
O        O      0.000000000000     0.956250000000     0.078250000000     0          
O        O      0.062500000000     0.875000000000     0.000000000000     0          
O        O      0.043600000000     0.942150000000     0.499200000000     0          
O        O      0.125000000000     0.922250000000     0.478600000000     0          
O        O      0.059750000000     0.904850000000     0.420000000000     0          
O        O      0.081925000000     0.844100000000     0.375000000000     0          
O        O      0.000000000000     0.956250000000     0.171750000000     0          
O        O      0.187500000000     0.625000000000     0.250000000000     0          
O        O      0.206400000000     0.557850000000     0.249200000000     0          
O        O      0.125000000000     0.577750000000     0.228600000000     0          
O        O      0.190250000000     0.595150000000     0.170000000000     0          
O        O      0.168075000000     0.655900000000     0.125000000000     0          
O        O      0.000000000000     0.543750000000     0.421750000000     0          
O        O      0.187500000000     0.875000000000     0.000000000000     0          
O        O      0.206400000000     0.942150000000     0.499200000000     0          
O        O      0.190250000000     0.904850000000     0.420000000000     0          
O        O      0.062500000000     0.625000000000     0.250000000000     0          
O        O      0.043600000000     0.557850000000     0.249200000000     0          
O        O      0.059750000000     0.595150000000     0.170000000000     0          
O        O      0.187500000000     0.625000000000     0.000000000000     0          
O        O      0.206400000000     0.557850000000     0.000800000000     0          
O        O      0.190250000000     0.595150000000     0.080000000000     0          
O        O      0.062500000000     0.875000000000     0.250000000000     0          
O        O      0.043600000000     0.942150000000     0.250800000000     0          
O        O      0.059750000000     0.904850000000     0.330000000000     0          
O        O      0.168600000000     0.807850000000     0.000800000000     0          
O        O      0.000000000000     0.827750000000     0.021400000000     0          
O        O      0.184750000000     0.845150000000     0.080000000000     0          
O        O      0.206925000000     0.905900000000     0.125000000000     0          
O        O      0.125000000000     0.882700000000     0.125000000000     0          
O        O      0.125000000000     0.750000000000     0.250000000000     0          
O        O      0.125000000000     0.793750000000     0.328250000000     0          
O        O      0.081400000000     0.692150000000     0.250800000000     0          
O        O      0.000000000000     0.672250000000     0.271400000000     0          
O        O      0.065250000000     0.654850000000     0.330000000000     0          
O        O      0.043075000000     0.594100000000     0.375000000000     0          
O        O      0.125000000000     0.617300000000     0.375000000000     0          
O        O      0.125000000000     0.750000000000     0.000000000000     0          
O        O      0.125000000000     0.706250000000     0.078250000000     0          
O        O      0.168600000000     0.692150000000     0.499200000000     0          
O        O      0.000000000000     0.672250000000     0.478600000000     0          
O        O      0.184750000000     0.654850000000     0.420000000000     0          
O        O      0.206925000000     0.594100000000     0.375000000000     0          
O        O      0.125000000000     0.706250000000     0.171750000000     0          
O        O      0.081400000000     0.807850000000     0.249200000000     0          
O        O      0.000000000000     0.827750000000     0.228600000000     0          
O        O      0.065250000000     0.845150000000     0.170000000000     0          
O        O      0.043075000000     0.905900000000     0.125000000000     0          
O        O      0.125000000000     0.793750000000     0.421750000000     0          
O        O      0.081400000000     0.692150000000     0.499200000000     0          
O        O      0.065250000000     0.654850000000     0.420000000000     0          
O        O      0.168600000000     0.807850000000     0.249200000000     0          
O        O      0.184750000000     0.845150000000     0.170000000000     0          
O        O      0.081400000000     0.807850000000     0.000800000000     0          
O        O      0.065250000000     0.845150000000     0.080000000000     0          
O        O      0.168600000000     0.692150000000     0.250800000000     0          
O        O      0.184750000000     0.654850000000     0.330000000000     0          
O        O      0.062500000000     0.625000000000     0.500000000000     0          
O        O      0.043600000000     0.557850000000     0.500800000000     0          
O        O      0.125000000000     0.577750000000     0.521400000000     0          
O        O      0.059750000000     0.595150000000     0.580000000000     0          
O        O      0.081925000000     0.655900000000     0.625000000000     0          
O        O      0.000000000000     0.632700000000     0.625000000000     0          
O        O      0.000000000000     0.500000000000     0.750000000000     0          
O        O      0.000000000000     0.543750000000     0.828250000000     0          
O        O      0.187500000000     0.875000000000     0.750000000000     0          
O        O      0.206400000000     0.942150000000     0.750800000000     0          
O        O      0.125000000000     0.922250000000     0.771400000000     0          
O        O      0.190250000000     0.904850000000     0.830000000000     0          
O        O      0.168075000000     0.844100000000     0.875000000000     0          
O        O      0.000000000000     0.867300000000     0.875000000000     0          
O        O      0.000000000000     0.500000000000     0.500000000000     0          
O        O      0.000000000000     0.956250000000     0.578250000000     0          
O        O      0.062500000000     0.875000000000     0.500000000000     0          
O        O      0.043600000000     0.942150000000     0.999200000000     0          
O        O      0.125000000000     0.922250000000     0.978600000000     0          
O        O      0.059750000000     0.904850000000     0.920000000000     0          
O        O      0.081925000000     0.844100000000     0.875000000000     0          
O        O      0.000000000000     0.956250000000     0.671750000000     0          
O        O      0.187500000000     0.625000000000     0.750000000000     0          
O        O      0.206400000000     0.557850000000     0.749200000000     0          
O        O      0.125000000000     0.577750000000     0.728600000000     0          
O        O      0.190250000000     0.595150000000     0.670000000000     0          
O        O      0.168075000000     0.655900000000     0.625000000000     0          
O        O      0.000000000000     0.543750000000     0.921750000000     0          
O        O      0.187500000000     0.875000000000     0.500000000000     0          
O        O      0.206400000000     0.942150000000     0.999200000000     0          
O        O      0.190250000000     0.904850000000     0.920000000000     0          
O        O      0.062500000000     0.625000000000     0.750000000000     0          
O        O      0.043600000000     0.557850000000     0.749200000000     0          
O        O      0.059750000000     0.595150000000     0.670000000000     0          
O        O      0.187500000000     0.625000000000     0.500000000000     0          
O        O      0.206400000000     0.557850000000     0.500800000000     0          
O        O      0.190250000000     0.595150000000     0.580000000000     0          
O        O      0.062500000000     0.875000000000     0.750000000000     0          
O        O      0.043600000000     0.942150000000     0.750800000000     0          
O        O      0.059750000000     0.904850000000     0.830000000000     0          
O        O      0.168600000000     0.807850000000     0.500800000000     0          
O        O      0.000000000000     0.827750000000     0.521400000000     0          
O        O      0.184750000000     0.845150000000     0.580000000000     0          
O        O      0.206925000000     0.905900000000     0.625000000000     0          
O        O      0.125000000000     0.882700000000     0.625000000000     0          
O        O      0.125000000000     0.750000000000     0.750000000000     0          
O        O      0.125000000000     0.793750000000     0.828250000000     0          
O        O      0.081400000000     0.692150000000     0.750800000000     0          
O        O      0.000000000000     0.672250000000     0.771400000000     0          
O        O      0.065250000000     0.654850000000     0.830000000000     0          
O        O      0.043075000000     0.594100000000     0.875000000000     0          
O        O      0.125000000000     0.617300000000     0.875000000000     0          
O        O      0.125000000000     0.750000000000     0.500000000000     0          
O        O      0.125000000000     0.706250000000     0.578250000000     0          
O        O      0.168600000000     0.692150000000     0.999200000000     0          
O        O      0.000000000000     0.672250000000     0.978600000000     0          
O        O      0.184750000000     0.654850000000     0.920000000000     0          
O        O      0.206925000000     0.594100000000     0.875000000000     0          
O        O      0.125000000000     0.706250000000     0.671750000000     0          
O        O      0.081400000000     0.807850000000     0.749200000000     0          
O        O      0.000000000000     0.827750000000     0.728600000000     0          
O        O      0.065250000000     0.845150000000     0.670000000000     0          
O        O      0.043075000000     0.905900000000     0.625000000000     0          
O        O      0.125000000000     0.793750000000     0.921750000000     0          
O        O      0.081400000000     0.692150000000     0.999200000000     0          
O        O      0.065250000000     0.654850000000     0.920000000000     0          
O        O      0.168600000000     0.807850000000     0.749200000000     0          
O        O      0.184750000000     0.845150000000     0.670000000000     0          
O        O      0.081400000000     0.807850000000     0.500800000000     0          
O        O      0.065250000000     0.845150000000     0.580000000000     0          
O        O      0.168600000000     0.692150000000     0.750800000000     0          
O        O      0.184750000000     0.654850000000     0.830000000000     0          
O        O      0.312500000000     0.125000000000     0.000000000000     0          
O        O      0.293600000000     0.057850000000     0.000800000000     0          
O        O      0.375000000000     0.077750000000     0.021400000000     0          
O        O      0.309750000000     0.095150000000     0.080000000000     0          
O        O      0.331925000000     0.155900000000     0.125000000000     0          
O        O      0.250000000000     0.132700000000     0.125000000000     0          
O        O      0.250000000000     0.000000000000     0.250000000000     0          
O        O      0.250000000000     0.043750000000     0.328250000000     0          
O        O      0.437500000000     0.375000000000     0.250000000000     0          
O        O      0.456400000000     0.442150000000     0.250800000000     0          
O        O      0.375000000000     0.422250000000     0.271400000000     0          
O        O      0.440250000000     0.404850000000     0.330000000000     0          
O        O      0.418075000000     0.344100000000     0.375000000000     0          
O        O      0.250000000000     0.367300000000     0.375000000000     0          
O        O      0.250000000000     0.000000000000     0.000000000000     0          
O        O      0.250000000000     0.456250000000     0.078250000000     0          
O        O      0.312500000000     0.375000000000     0.000000000000     0          
O        O      0.293600000000     0.442150000000     0.499200000000     0          
O        O      0.375000000000     0.422250000000     0.478600000000     0          
O        O      0.309750000000     0.404850000000     0.420000000000     0          
O        O      0.331925000000     0.344100000000     0.375000000000     0          
O        O      0.250000000000     0.456250000000     0.171750000000     0          
O        O      0.437500000000     0.125000000000     0.250000000000     0          
O        O      0.456400000000     0.057850000000     0.249200000000     0          
O        O      0.375000000000     0.077750000000     0.228600000000     0          
O        O      0.440250000000     0.095150000000     0.170000000000     0          
O        O      0.418075000000     0.155900000000     0.125000000000     0          
O        O      0.250000000000     0.043750000000     0.421750000000     0          
O        O      0.437500000000     0.375000000000     0.000000000000     0          
O        O      0.456400000000     0.442150000000     0.499200000000     0          
O        O      0.440250000000     0.404850000000     0.420000000000     0          
O        O      0.312500000000     0.125000000000     0.250000000000     0          
O        O      0.293600000000     0.057850000000     0.249200000000     0          
O        O      0.309750000000     0.095150000000     0.170000000000     0          
O        O      0.437500000000     0.125000000000     0.000000000000     0          
O        O      0.456400000000     0.057850000000     0.000800000000     0          
O        O      0.440250000000     0.095150000000     0.080000000000     0          
O        O      0.312500000000     0.375000000000     0.250000000000     0          
O        O      0.293600000000     0.442150000000     0.250800000000     0          
O        O      0.309750000000     0.404850000000     0.330000000000     0          
O        O      0.418600000000     0.307850000000     0.000800000000     0          
O        O      0.250000000000     0.327750000000     0.021400000000     0          
O        O      0.434750000000     0.345150000000     0.080000000000     0          
O        O      0.456925000000     0.405900000000     0.125000000000     0          
O        O      0.375000000000     0.382700000000     0.125000000000     0          
O        O      0.375000000000     0.250000000000     0.250000000000     0          
O        O      0.375000000000     0.293750000000     0.328250000000     0          
O        O      0.331400000000     0.192150000000     0.250800000000     0          
O        O      0.250000000000     0.172250000000     0.271400000000     0          
O        O      0.315250000000     0.154850000000     0.330000000000     0          
O        O      0.293075000000     0.094100000000     0.375000000000     0          
O        O      0.375000000000     0.117300000000     0.375000000000     0          
O        O      0.375000000000     0.250000000000     0.000000000000     0          
O        O      0.375000000000     0.206250000000     0.078250000000     0          
O        O      0.418600000000     0.192150000000     0.499200000000     0          
O        O      0.250000000000     0.172250000000     0.478600000000     0          
O        O      0.434750000000     0.154850000000     0.420000000000     0          
O        O      0.456925000000     0.094100000000     0.375000000000     0          
O        O      0.375000000000     0.206250000000     0.171750000000     0          
O        O      0.331400000000     0.307850000000     0.249200000000     0          
O        O      0.250000000000     0.327750000000     0.228600000000     0          
O        O      0.315250000000     0.345150000000     0.170000000000     0          
O        O      0.293075000000     0.405900000000     0.125000000000     0          
O        O      0.375000000000     0.293750000000     0.421750000000     0          
O        O      0.331400000000     0.192150000000     0.499200000000     0          
O        O      0.315250000000     0.154850000000     0.420000000000     0          
O        O      0.418600000000     0.307850000000     0.249200000000     0          
O        O      0.434750000000     0.345150000000     0.170000000000     0          
O        O      0.331400000000     0.307850000000     0.000800000000     0          
O        O      0.315250000000     0.345150000000     0.080000000000     0          
O        O      0.418600000000     0.192150000000     0.250800000000     0          
O        O      0.434750000000     0.154850000000     0.330000000000     0          
O        O      0.312500000000     0.125000000000     0.500000000000     0          
O        O      0.293600000000     0.057850000000     0.500800000000     0          
O        O      0.375000000000     0.077750000000     0.521400000000     0          
O        O      0.309750000000     0.095150000000     0.580000000000     0          
O        O      0.331925000000     0.155900000000     0.625000000000     0          
O        O      0.250000000000     0.132700000000     0.625000000000     0          
O        O      0.250000000000     0.000000000000     0.750000000000     0          
O        O      0.250000000000     0.043750000000     0.828250000000     0          
O        O      0.437500000000     0.375000000000     0.750000000000     0          
O        O      0.456400000000     0.442150000000     0.750800000000     0          
O        O      0.375000000000     0.422250000000     0.771400000000     0          
O        O      0.440250000000     0.404850000000     0.830000000000     0          
O        O      0.418075000000     0.344100000000     0.875000000000     0          
O        O      0.250000000000     0.367300000000     0.875000000000     0          
O        O      0.250000000000     0.000000000000     0.500000000000     0          
O        O      0.250000000000     0.456250000000     0.578250000000     0          
O        O      0.312500000000     0.375000000000     0.500000000000     0          
O        O      0.293600000000     0.442150000000     0.999200000000     0          
O        O      0.375000000000     0.422250000000     0.978600000000     0          
O        O      0.309750000000     0.404850000000     0.920000000000     0          
O        O      0.331925000000     0.344100000000     0.875000000000     0          
O        O      0.250000000000     0.456250000000     0.671750000000     0          
O        O      0.437500000000     0.125000000000     0.750000000000     0          
O        O      0.456400000000     0.057850000000     0.749200000000     0          
O        O      0.375000000000     0.077750000000     0.728600000000     0          
O        O      0.440250000000     0.095150000000     0.670000000000     0          
O        O      0.418075000000     0.155900000000     0.625000000000     0          
O        O      0.250000000000     0.043750000000     0.921750000000     0          
O        O      0.437500000000     0.375000000000     0.500000000000     0          
O        O      0.456400000000     0.442150000000     0.999200000000     0          
O        O      0.440250000000     0.404850000000     0.920000000000     0          
O        O      0.312500000000     0.125000000000     0.750000000000     0          
O        O      0.293600000000     0.057850000000     0.749200000000     0          
O        O      0.309750000000     0.095150000000     0.670000000000     0          
O        O      0.437500000000     0.125000000000     0.500000000000     0          
O        O      0.456400000000     0.057850000000     0.500800000000     0          
O        O      0.440250000000     0.095150000000     0.580000000000     0          
O        O      0.312500000000     0.375000000000     0.750000000000     0          
O        O      0.293600000000     0.442150000000     0.750800000000     0          
O        O      0.309750000000     0.404850000000     0.830000000000     0          
O        O      0.418600000000     0.307850000000     0.500800000000     0          
O        O      0.250000000000     0.327750000000     0.521400000000     0          
O        O      0.434750000000     0.345150000000     0.580000000000     0          
O        O      0.456925000000     0.405900000000     0.625000000000     0          
O        O      0.375000000000     0.382700000000     0.625000000000     0          
O        O      0.375000000000     0.250000000000     0.750000000000     0          
O        O      0.375000000000     0.293750000000     0.828250000000     0          
O        O      0.331400000000     0.192150000000     0.750800000000     0          
O        O      0.250000000000     0.172250000000     0.771400000000     0          
O        O      0.315250000000     0.154850000000     0.830000000000     0          
O        O      0.293075000000     0.094100000000     0.875000000000     0          
O        O      0.375000000000     0.117300000000     0.875000000000     0          
O        O      0.375000000000     0.250000000000     0.500000000000     0          
O        O      0.375000000000     0.206250000000     0.578250000000     0          
O        O      0.418600000000     0.192150000000     0.999200000000     0          
O        O      0.250000000000     0.172250000000     0.978600000000     0          
O        O      0.434750000000     0.154850000000     0.920000000000     0          
O        O      0.456925000000     0.094100000000     0.875000000000     0          
O        O      0.375000000000     0.206250000000     0.671750000000     0          
O        O      0.331400000000     0.307850000000     0.749200000000     0          
O        O      0.250000000000     0.327750000000     0.728600000000     0          
O        O      0.315250000000     0.345150000000     0.670000000000     0          
O        O      0.293075000000     0.405900000000     0.625000000000     0          
O        O      0.375000000000     0.293750000000     0.921750000000     0          
O        O      0.331400000000     0.192150000000     0.999200000000     0          
O        O      0.315250000000     0.154850000000     0.920000000000     0          
O        O      0.418600000000     0.307850000000     0.749200000000     0          
O        O      0.434750000000     0.345150000000     0.670000000000     0          
O        O      0.331400000000     0.307850000000     0.500800000000     0          
O        O      0.315250000000     0.345150000000     0.580000000000     0          
O        O      0.418600000000     0.192150000000     0.750800000000     0          
O        O      0.434750000000     0.154850000000     0.830000000000     0          
O        O      0.312500000000     0.625000000000     0.000000000000     0          
O        O      0.293600000000     0.557850000000     0.000800000000     0          
O        O      0.375000000000     0.577750000000     0.021400000000     0          
O        O      0.309750000000     0.595150000000     0.080000000000     0          
O        O      0.331925000000     0.655900000000     0.125000000000     0          
O        O      0.250000000000     0.632700000000     0.125000000000     0          
O        O      0.250000000000     0.500000000000     0.250000000000     0          
O        O      0.250000000000     0.543750000000     0.328250000000     0          
O        O      0.437500000000     0.875000000000     0.250000000000     0          
O        O      0.456400000000     0.942150000000     0.250800000000     0          
O        O      0.375000000000     0.922250000000     0.271400000000     0          
O        O      0.440250000000     0.904850000000     0.330000000000     0          
O        O      0.418075000000     0.844100000000     0.375000000000     0          
O        O      0.250000000000     0.867300000000     0.375000000000     0          
O        O      0.250000000000     0.500000000000     0.000000000000     0          
O        O      0.250000000000     0.956250000000     0.078250000000     0          
O        O      0.312500000000     0.875000000000     0.000000000000     0          
O        O      0.293600000000     0.942150000000     0.499200000000     0          
O        O      0.375000000000     0.922250000000     0.478600000000     0          
O        O      0.309750000000     0.904850000000     0.420000000000     0          
O        O      0.331925000000     0.844100000000     0.375000000000     0          
O        O      0.250000000000     0.956250000000     0.171750000000     0          
O        O      0.437500000000     0.625000000000     0.250000000000     0          
O        O      0.456400000000     0.557850000000     0.249200000000     0          
O        O      0.375000000000     0.577750000000     0.228600000000     0          
O        O      0.440250000000     0.595150000000     0.170000000000     0          
O        O      0.418075000000     0.655900000000     0.125000000000     0          
O        O      0.250000000000     0.543750000000     0.421750000000     0          
O        O      0.437500000000     0.875000000000     0.000000000000     0          
O        O      0.456400000000     0.942150000000     0.499200000000     0          
O        O      0.440250000000     0.904850000000     0.420000000000     0          
O        O      0.312500000000     0.625000000000     0.250000000000     0          
O        O      0.293600000000     0.557850000000     0.249200000000     0          
O        O      0.309750000000     0.595150000000     0.170000000000     0          
O        O      0.437500000000     0.625000000000     0.000000000000     0          
O        O      0.456400000000     0.557850000000     0.000800000000     0          
O        O      0.440250000000     0.595150000000     0.080000000000     0          
O        O      0.312500000000     0.875000000000     0.250000000000     0          
O        O      0.293600000000     0.942150000000     0.250800000000     0          
O        O      0.309750000000     0.904850000000     0.330000000000     0          
O        O      0.418600000000     0.807850000000     0.000800000000     0          
O        O      0.250000000000     0.827750000000     0.021400000000     0          
O        O      0.434750000000     0.845150000000     0.080000000000     0          
O        O      0.456925000000     0.905900000000     0.125000000000     0          
O        O      0.375000000000     0.882700000000     0.125000000000     0          
O        O      0.375000000000     0.750000000000     0.250000000000     0          
O        O      0.375000000000     0.793750000000     0.328250000000     0          
O        O      0.331400000000     0.692150000000     0.250800000000     0          
O        O      0.250000000000     0.672250000000     0.271400000000     0          
O        O      0.315250000000     0.654850000000     0.330000000000     0          
O        O      0.293075000000     0.594100000000     0.375000000000     0          
O        O      0.375000000000     0.617300000000     0.375000000000     0          
O        O      0.375000000000     0.750000000000     0.000000000000     0          
O        O      0.375000000000     0.706250000000     0.078250000000     0          
O        O      0.418600000000     0.692150000000     0.499200000000     0          
O        O      0.250000000000     0.672250000000     0.478600000000     0          
O        O      0.434750000000     0.654850000000     0.420000000000     0          
O        O      0.456925000000     0.594100000000     0.375000000000     0          
O        O      0.375000000000     0.706250000000     0.171750000000     0          
O        O      0.331400000000     0.807850000000     0.249200000000     0          
O        O      0.250000000000     0.827750000000     0.228600000000     0          
O        O      0.315250000000     0.845150000000     0.170000000000     0          
O        O      0.293075000000     0.905900000000     0.125000000000     0          
O        O      0.375000000000     0.793750000000     0.421750000000     0          
O        O      0.331400000000     0.692150000000     0.499200000000     0          
O        O      0.315250000000     0.654850000000     0.420000000000     0          
O        O      0.418600000000     0.807850000000     0.249200000000     0          
O        O      0.434750000000     0.845150000000     0.170000000000     0          
O        O      0.331400000000     0.807850000000     0.000800000000     0          
O        O      0.315250000000     0.845150000000     0.080000000000     0          
O        O      0.418600000000     0.692150000000     0.250800000000     0          
O        O      0.434750000000     0.654850000000     0.330000000000     0          
O        O      0.312500000000     0.625000000000     0.500000000000     0          
O        O      0.293600000000     0.557850000000     0.500800000000     0          
O        O      0.375000000000     0.577750000000     0.521400000000     0          
O        O      0.309750000000     0.595150000000     0.580000000000     0          
O        O      0.331925000000     0.655900000000     0.625000000000     0          
O        O      0.250000000000     0.632700000000     0.625000000000     0          
O        O      0.250000000000     0.500000000000     0.750000000000     0          
O        O      0.250000000000     0.543750000000     0.828250000000     0          
O        O      0.437500000000     0.875000000000     0.750000000000     0          
O        O      0.456400000000     0.942150000000     0.750800000000     0          
O        O      0.375000000000     0.922250000000     0.771400000000     0          
O        O      0.440250000000     0.904850000000     0.830000000000     0          
O        O      0.418075000000     0.844100000000     0.875000000000     0          
O        O      0.250000000000     0.867300000000     0.875000000000     0          
O        O      0.250000000000     0.500000000000     0.500000000000     0          
O        O      0.250000000000     0.956250000000     0.578250000000     0          
O        O      0.312500000000     0.875000000000     0.500000000000     0          
O        O      0.293600000000     0.942150000000     0.999200000000     0          
O        O      0.375000000000     0.922250000000     0.978600000000     0          
O        O      0.309750000000     0.904850000000     0.920000000000     0          
O        O      0.331925000000     0.844100000000     0.875000000000     0          
O        O      0.250000000000     0.956250000000     0.671750000000     0          
O        O      0.437500000000     0.625000000000     0.750000000000     0          
O        O      0.456400000000     0.557850000000     0.749200000000     0          
O        O      0.375000000000     0.577750000000     0.728600000000     0          
O        O      0.440250000000     0.595150000000     0.670000000000     0          
O        O      0.418075000000     0.655900000000     0.625000000000     0          
O        O      0.250000000000     0.543750000000     0.921750000000     0          
O        O      0.437500000000     0.875000000000     0.500000000000     0          
O        O      0.456400000000     0.942150000000     0.999200000000     0          
O        O      0.440250000000     0.904850000000     0.920000000000     0          
O        O      0.312500000000     0.625000000000     0.750000000000     0          
O        O      0.293600000000     0.557850000000     0.749200000000     0          
O        O      0.309750000000     0.595150000000     0.670000000000     0          
O        O      0.437500000000     0.625000000000     0.500000000000     0          
O        O      0.456400000000     0.557850000000     0.500800000000     0          
O        O      0.440250000000     0.595150000000     0.580000000000     0          
O        O      0.312500000000     0.875000000000     0.750000000000     0          
O        O      0.293600000000     0.942150000000     0.750800000000     0          
O        O      0.309750000000     0.904850000000     0.830000000000     0          
O        O      0.418600000000     0.807850000000     0.500800000000     0          
O        O      0.250000000000     0.827750000000     0.521400000000     0          
O        O      0.434750000000     0.845150000000     0.580000000000     0          
O        O      0.456925000000     0.905900000000     0.625000000000     0          
O        O      0.375000000000     0.882700000000     0.625000000000     0          
O        O      0.375000000000     0.750000000000     0.750000000000     0          
O        O      0.375000000000     0.793750000000     0.828250000000     0          
O        O      0.331400000000     0.692150000000     0.750800000000     0          
O        O      0.250000000000     0.672250000000     0.771400000000     0          
O        O      0.315250000000     0.654850000000     0.830000000000     0          
O        O      0.293075000000     0.594100000000     0.875000000000     0          
O        O      0.375000000000     0.617300000000     0.875000000000     0          
O        O      0.375000000000     0.750000000000     0.500000000000     0          
O        O      0.375000000000     0.706250000000     0.578250000000     0          
O        O      0.418600000000     0.692150000000     0.999200000000     0          
O        O      0.250000000000     0.672250000000     0.978600000000     0          
O        O      0.434750000000     0.654850000000     0.920000000000     0          
O        O      0.456925000000     0.594100000000     0.875000000000     0          
O        O      0.375000000000     0.706250000000     0.671750000000     0          
O        O      0.331400000000     0.807850000000     0.749200000000     0          
O        O      0.250000000000     0.827750000000     0.728600000000     0          
O        O      0.315250000000     0.845150000000     0.670000000000     0          
O        O      0.293075000000     0.905900000000     0.625000000000     0          
O        O      0.375000000000     0.793750000000     0.921750000000     0          
O        O      0.331400000000     0.692150000000     0.999200000000     0          
O        O      0.315250000000     0.654850000000     0.920000000000     0          
O        O      0.418600000000     0.807850000000     0.749200000000     0          
O        O      0.434750000000     0.845150000000     0.670000000000     0          
O        O      0.331400000000     0.807850000000     0.500800000000     0          
O        O      0.315250000000     0.845150000000     0.580000000000     0          
O        O      0.418600000000     0.692150000000     0.750800000000     0          
O        O      0.434750000000     0.654850000000     0.830000000000     0          
O        O      0.562500000000     0.125000000000     0.000000000000     0          
O        O      0.543600000000     0.057850000000     0.000800000000     0          
O        O      0.625000000000     0.077750000000     0.021400000000     0          
O        O      0.559750000000     0.095150000000     0.080000000000     0          
O        O      0.581925000000     0.155900000000     0.125000000000     0          
O        O      0.500000000000     0.132700000000     0.125000000000     0          
O        O      0.500000000000     0.000000000000     0.250000000000     0          
O        O      0.500000000000     0.043750000000     0.328250000000     0          
O        O      0.687500000000     0.375000000000     0.250000000000     0          
O        O      0.706400000000     0.442150000000     0.250800000000     0          
O        O      0.625000000000     0.422250000000     0.271400000000     0          
O        O      0.690250000000     0.404850000000     0.330000000000     0          
O        O      0.668075000000     0.344100000000     0.375000000000     0          
O        O      0.500000000000     0.367300000000     0.375000000000     0          
O        O      0.500000000000     0.000000000000     0.000000000000     0          
O        O      0.500000000000     0.456250000000     0.078250000000     0          
O        O      0.562500000000     0.375000000000     0.000000000000     0          
O        O      0.543600000000     0.442150000000     0.499200000000     0          
O        O      0.625000000000     0.422250000000     0.478600000000     0          
O        O      0.559750000000     0.404850000000     0.420000000000     0          
O        O      0.581925000000     0.344100000000     0.375000000000     0          
O        O      0.500000000000     0.456250000000     0.171750000000     0          
O        O      0.687500000000     0.125000000000     0.250000000000     0          
O        O      0.706400000000     0.057850000000     0.249200000000     0          
O        O      0.625000000000     0.077750000000     0.228600000000     0          
O        O      0.690250000000     0.095150000000     0.170000000000     0          
O        O      0.668075000000     0.155900000000     0.125000000000     0          
O        O      0.500000000000     0.043750000000     0.421750000000     0          
O        O      0.687500000000     0.375000000000     0.000000000000     0          
O        O      0.706400000000     0.442150000000     0.499200000000     0          
O        O      0.690250000000     0.404850000000     0.420000000000     0          
O        O      0.562500000000     0.125000000000     0.250000000000     0          
O        O      0.543600000000     0.057850000000     0.249200000000     0          
O        O      0.559750000000     0.095150000000     0.170000000000     0          
O        O      0.687500000000     0.125000000000     0.000000000000     0          
O        O      0.706400000000     0.057850000000     0.000800000000     0          
O        O      0.690250000000     0.095150000000     0.080000000000     0          
O        O      0.562500000000     0.375000000000     0.250000000000     0          
O        O      0.543600000000     0.442150000000     0.250800000000     0          
O        O      0.559750000000     0.404850000000     0.330000000000     0          
O        O      0.668600000000     0.307850000000     0.000800000000     0          
O        O      0.500000000000     0.327750000000     0.021400000000     0          
O        O      0.684750000000     0.345150000000     0.080000000000     0          
O        O      0.706925000000     0.405900000000     0.125000000000     0          
O        O      0.625000000000     0.382700000000     0.125000000000     0          
O        O      0.625000000000     0.250000000000     0.250000000000     0          
O        O      0.625000000000     0.293750000000     0.328250000000     0          
O        O      0.581400000000     0.192150000000     0.250800000000     0          
O        O      0.500000000000     0.172250000000     0.271400000000     0          
O        O      0.565250000000     0.154850000000     0.330000000000     0          
O        O      0.543075000000     0.094100000000     0.375000000000     0          
O        O      0.625000000000     0.117300000000     0.375000000000     0          
O        O      0.625000000000     0.250000000000     0.000000000000     0          
O        O      0.625000000000     0.206250000000     0.078250000000     0          
O        O      0.668600000000     0.192150000000     0.499200000000     0          
O        O      0.500000000000     0.172250000000     0.478600000000     0          
O        O      0.684750000000     0.154850000000     0.420000000000     0          
O        O      0.706925000000     0.094100000000     0.375000000000     0          
O        O      0.625000000000     0.206250000000     0.171750000000     0          
O        O      0.581400000000     0.307850000000     0.249200000000     0          
O        O      0.500000000000     0.327750000000     0.228600000000     0          
O        O      0.565250000000     0.345150000000     0.170000000000     0          
O        O      0.543075000000     0.405900000000     0.125000000000     0          
O        O      0.625000000000     0.293750000000     0.421750000000     0          
O        O      0.581400000000     0.192150000000     0.499200000000     0          
O        O      0.565250000000     0.154850000000     0.420000000000     0          
O        O      0.668600000000     0.307850000000     0.249200000000     0          
O        O      0.684750000000     0.345150000000     0.170000000000     0          
O        O      0.581400000000     0.307850000000     0.000800000000     0          
O        O      0.565250000000     0.345150000000     0.080000000000     0          
O        O      0.668600000000     0.192150000000     0.250800000000     0          
O        O      0.684750000000     0.154850000000     0.330000000000     0          
O        O      0.562500000000     0.125000000000     0.500000000000     0          
O        O      0.543600000000     0.057850000000     0.500800000000     0          
O        O      0.625000000000     0.077750000000     0.521400000000     0          
O        O      0.559750000000     0.095150000000     0.580000000000     0          
O        O      0.581925000000     0.155900000000     0.625000000000     0          
O        O      0.500000000000     0.132700000000     0.625000000000     0          
O        O      0.500000000000     0.000000000000     0.750000000000     0          
O        O      0.500000000000     0.043750000000     0.828250000000     0          
O        O      0.687500000000     0.375000000000     0.750000000000     0          
O        O      0.706400000000     0.442150000000     0.750800000000     0          
O        O      0.625000000000     0.422250000000     0.771400000000     0          
O        O      0.690250000000     0.404850000000     0.830000000000     0          
O        O      0.668075000000     0.344100000000     0.875000000000     0          
O        O      0.500000000000     0.367300000000     0.875000000000     0          
O        O      0.500000000000     0.000000000000     0.500000000000     0          
O        O      0.500000000000     0.456250000000     0.578250000000     0          
O        O      0.562500000000     0.375000000000     0.500000000000     0          
O        O      0.543600000000     0.442150000000     0.999200000000     0          
O        O      0.625000000000     0.422250000000     0.978600000000     0          
O        O      0.559750000000     0.404850000000     0.920000000000     0          
O        O      0.581925000000     0.344100000000     0.875000000000     0          
O        O      0.500000000000     0.456250000000     0.671750000000     0          
O        O      0.687500000000     0.125000000000     0.750000000000     0          
O        O      0.706400000000     0.057850000000     0.749200000000     0          
O        O      0.625000000000     0.077750000000     0.728600000000     0          
O        O      0.690250000000     0.095150000000     0.670000000000     0          
O        O      0.668075000000     0.155900000000     0.625000000000     0          
O        O      0.500000000000     0.043750000000     0.921750000000     0          
O        O      0.687500000000     0.375000000000     0.500000000000     0          
O        O      0.706400000000     0.442150000000     0.999200000000     0          
O        O      0.690250000000     0.404850000000     0.920000000000     0          
O        O      0.562500000000     0.125000000000     0.750000000000     0          
O        O      0.543600000000     0.057850000000     0.749200000000     0          
O        O      0.559750000000     0.095150000000     0.670000000000     0          
O        O      0.687500000000     0.125000000000     0.500000000000     0          
O        O      0.706400000000     0.057850000000     0.500800000000     0          
O        O      0.690250000000     0.095150000000     0.580000000000     0          
O        O      0.562500000000     0.375000000000     0.750000000000     0          
O        O      0.543600000000     0.442150000000     0.750800000000     0          
O        O      0.559750000000     0.404850000000     0.830000000000     0          
O        O      0.668600000000     0.307850000000     0.500800000000     0          
O        O      0.500000000000     0.327750000000     0.521400000000     0          
O        O      0.684750000000     0.345150000000     0.580000000000     0          
O        O      0.706925000000     0.405900000000     0.625000000000     0          
O        O      0.625000000000     0.382700000000     0.625000000000     0          
O        O      0.625000000000     0.250000000000     0.750000000000     0          
O        O      0.625000000000     0.293750000000     0.828250000000     0          
O        O      0.581400000000     0.192150000000     0.750800000000     0          
O        O      0.500000000000     0.172250000000     0.771400000000     0          
O        O      0.565250000000     0.154850000000     0.830000000000     0          
O        O      0.543075000000     0.094100000000     0.875000000000     0          
O        O      0.625000000000     0.117300000000     0.875000000000     0          
O        O      0.625000000000     0.250000000000     0.500000000000     0          
O        O      0.625000000000     0.206250000000     0.578250000000     0          
O        O      0.668600000000     0.192150000000     0.999200000000     0          
O        O      0.500000000000     0.172250000000     0.978600000000     0          
O        O      0.684750000000     0.154850000000     0.920000000000     0          
O        O      0.706925000000     0.094100000000     0.875000000000     0          
O        O      0.625000000000     0.206250000000     0.671750000000     0          
O        O      0.581400000000     0.307850000000     0.749200000000     0          
O        O      0.500000000000     0.327750000000     0.728600000000     0          
O        O      0.565250000000     0.345150000000     0.670000000000     0          
O        O      0.543075000000     0.405900000000     0.625000000000     0          
O        O      0.625000000000     0.293750000000     0.921750000000     0          
O        O      0.581400000000     0.192150000000     0.999200000000     0          
O        O      0.565250000000     0.154850000000     0.920000000000     0          
O        O      0.668600000000     0.307850000000     0.749200000000     0          
O        O      0.684750000000     0.345150000000     0.670000000000     0          
O        O      0.581400000000     0.307850000000     0.500800000000     0          
O        O      0.565250000000     0.345150000000     0.580000000000     0          
O        O      0.668600000000     0.192150000000     0.750800000000     0          
O        O      0.684750000000     0.154850000000     0.830000000000     0          
O        O      0.562500000000     0.625000000000     0.000000000000     0          
O        O      0.543600000000     0.557850000000     0.000800000000     0          
O        O      0.625000000000     0.577750000000     0.021400000000     0          
O        O      0.559750000000     0.595150000000     0.080000000000     0          
O        O      0.581925000000     0.655900000000     0.125000000000     0          
O        O      0.500000000000     0.632700000000     0.125000000000     0          
O        O      0.500000000000     0.500000000000     0.250000000000     0          
O        O      0.500000000000     0.543750000000     0.328250000000     0          
O        O      0.687500000000     0.875000000000     0.250000000000     0          
O        O      0.706400000000     0.942150000000     0.250800000000     0          
O        O      0.625000000000     0.922250000000     0.271400000000     0          
O        O      0.690250000000     0.904850000000     0.330000000000     0          
O        O      0.668075000000     0.844100000000     0.375000000000     0          
O        O      0.500000000000     0.867300000000     0.375000000000     0          
O        O      0.500000000000     0.500000000000     0.000000000000     0          
O        O      0.500000000000     0.956250000000     0.078250000000     0          
O        O      0.562500000000     0.875000000000     0.000000000000     0          
O        O      0.543600000000     0.942150000000     0.499200000000     0          
O        O      0.625000000000     0.922250000000     0.478600000000     0          
O        O      0.559750000000     0.904850000000     0.420000000000     0          
O        O      0.581925000000     0.844100000000     0.375000000000     0          
O        O      0.500000000000     0.956250000000     0.171750000000     0          
O        O      0.687500000000     0.625000000000     0.250000000000     0          
O        O      0.706400000000     0.557850000000     0.249200000000     0          
O        O      0.625000000000     0.577750000000     0.228600000000     0          
O        O      0.690250000000     0.595150000000     0.170000000000     0          
O        O      0.668075000000     0.655900000000     0.125000000000     0          
O        O      0.500000000000     0.543750000000     0.421750000000     0          
O        O      0.687500000000     0.875000000000     0.000000000000     0          
O        O      0.706400000000     0.942150000000     0.499200000000     0          
O        O      0.690250000000     0.904850000000     0.420000000000     0          
O        O      0.562500000000     0.625000000000     0.250000000000     0          
O        O      0.543600000000     0.557850000000     0.249200000000     0          
O        O      0.559750000000     0.595150000000     0.170000000000     0          
O        O      0.687500000000     0.625000000000     0.000000000000     0          
O        O      0.706400000000     0.557850000000     0.000800000000     0          
O        O      0.690250000000     0.595150000000     0.080000000000     0          
O        O      0.562500000000     0.875000000000     0.250000000000     0          
O        O      0.543600000000     0.942150000000     0.250800000000     0          
O        O      0.559750000000     0.904850000000     0.330000000000     0          
O        O      0.668600000000     0.807850000000     0.000800000000     0          
O        O      0.500000000000     0.827750000000     0.021400000000     0          
O        O      0.684750000000     0.845150000000     0.080000000000     0          
O        O      0.706925000000     0.905900000000     0.125000000000     0          
O        O      0.625000000000     0.882700000000     0.125000000000     0          
O        O      0.625000000000     0.750000000000     0.250000000000     0          
O        O      0.625000000000     0.793750000000     0.328250000000     0          
O        O      0.581400000000     0.692150000000     0.250800000000     0          
O        O      0.500000000000     0.672250000000     0.271400000000     0          
O        O      0.565250000000     0.654850000000     0.330000000000     0          
O        O      0.543075000000     0.594100000000     0.375000000000     0          
O        O      0.625000000000     0.617300000000     0.375000000000     0          
O        O      0.625000000000     0.750000000000     0.000000000000     0          
O        O      0.625000000000     0.706250000000     0.078250000000     0          
O        O      0.668600000000     0.692150000000     0.499200000000     0          
O        O      0.500000000000     0.672250000000     0.478600000000     0          
O        O      0.684750000000     0.654850000000     0.420000000000     0          
O        O      0.706925000000     0.594100000000     0.375000000000     0          
O        O      0.625000000000     0.706250000000     0.171750000000     0          
O        O      0.581400000000     0.807850000000     0.249200000000     0          
O        O      0.500000000000     0.827750000000     0.228600000000     0          
O        O      0.565250000000     0.845150000000     0.170000000000     0          
O        O      0.543075000000     0.905900000000     0.125000000000     0          
O        O      0.625000000000     0.793750000000     0.421750000000     0          
O        O      0.581400000000     0.692150000000     0.499200000000     0          
O        O      0.565250000000     0.654850000000     0.420000000000     0          
O        O      0.668600000000     0.807850000000     0.249200000000     0          
O        O      0.684750000000     0.845150000000     0.170000000000     0          
O        O      0.581400000000     0.807850000000     0.000800000000     0          
O        O      0.565250000000     0.845150000000     0.080000000000     0          
O        O      0.668600000000     0.692150000000     0.250800000000     0          
O        O      0.684750000000     0.654850000000     0.330000000000     0          
O        O      0.562500000000     0.625000000000     0.500000000000     0          
O        O      0.543600000000     0.557850000000     0.500800000000     0          
O        O      0.625000000000     0.577750000000     0.521400000000     0          
O        O      0.559750000000     0.595150000000     0.580000000000     0          
O        O      0.581925000000     0.655900000000     0.625000000000     0          
O        O      0.500000000000     0.632700000000     0.625000000000     0          
O        O      0.500000000000     0.500000000000     0.750000000000     0          
O        O      0.500000000000     0.543750000000     0.828250000000     0          
O        O      0.687500000000     0.875000000000     0.750000000000     0          
O        O      0.706400000000     0.942150000000     0.750800000000     0          
O        O      0.625000000000     0.922250000000     0.771400000000     0          
O        O      0.690250000000     0.904850000000     0.830000000000     0          
O        O      0.668075000000     0.844100000000     0.875000000000     0          
O        O      0.500000000000     0.867300000000     0.875000000000     0          
O        O      0.500000000000     0.500000000000     0.500000000000     0          
O        O      0.500000000000     0.956250000000     0.578250000000     0          
O        O      0.562500000000     0.875000000000     0.500000000000     0          
O        O      0.543600000000     0.942150000000     0.999200000000     0          
O        O      0.625000000000     0.922250000000     0.978600000000     0          
O        O      0.559750000000     0.904850000000     0.920000000000     0          
O        O      0.581925000000     0.844100000000     0.875000000000     0          
O        O      0.500000000000     0.956250000000     0.671750000000     0          
O        O      0.687500000000     0.625000000000     0.750000000000     0          
O        O      0.706400000000     0.557850000000     0.749200000000     0          
O        O      0.625000000000     0.577750000000     0.728600000000     0          
O        O      0.690250000000     0.595150000000     0.670000000000     0          
O        O      0.668075000000     0.655900000000     0.625000000000     0          
O        O      0.500000000000     0.543750000000     0.921750000000     0          
O        O      0.687500000000     0.875000000000     0.500000000000     0          
O        O      0.706400000000     0.942150000000     0.999200000000     0          
O        O      0.690250000000     0.904850000000     0.920000000000     0          
O        O      0.562500000000     0.625000000000     0.750000000000     0          
O        O      0.543600000000     0.557850000000     0.749200000000     0          
O        O      0.559750000000     0.595150000000     0.670000000000     0          
O        O      0.687500000000     0.625000000000     0.500000000000     0          
O        O      0.706400000000     0.557850000000     0.500800000000     0          
O        O      0.690250000000     0.595150000000     0.580000000000     0          
O        O      0.562500000000     0.875000000000     0.750000000000     0          
O        O      0.543600000000     0.942150000000     0.750800000000     0          
O        O      0.559750000000     0.904850000000     0.830000000000     0          
O        O      0.668600000000     0.807850000000     0.500800000000     0          
O        O      0.500000000000     0.827750000000     0.521400000000     0          
O        O      0.684750000000     0.845150000000     0.580000000000     0          
O        O      0.706925000000     0.905900000000     0.625000000000     0          
O        O      0.625000000000     0.882700000000     0.625000000000     0          
O        O      0.625000000000     0.750000000000     0.750000000000     0          
O        O      0.625000000000     0.793750000000     0.828250000000     0          
O        O      0.581400000000     0.692150000000     0.750800000000     0          
O        O      0.500000000000     0.672250000000     0.771400000000     0          
O        O      0.565250000000     0.654850000000     0.830000000000     0          
O        O      0.543075000000     0.594100000000     0.875000000000     0          
O        O      0.625000000000     0.617300000000     0.875000000000     0          
O        O      0.625000000000     0.750000000000     0.500000000000     0          
O        O      0.625000000000     0.706250000000     0.578250000000     0          
O        O      0.668600000000     0.692150000000     0.999200000000     0          
O        O      0.500000000000     0.672250000000     0.978600000000     0          
O        O      0.684750000000     0.654850000000     0.920000000000     0          
O        O      0.706925000000     0.594100000000     0.875000000000     0          
O        O      0.625000000000     0.706250000000     0.671750000000     0          
O        O      0.581400000000     0.807850000000     0.749200000000     0          
O        O      0.500000000000     0.827750000000     0.728600000000     0          
O        O      0.565250000000     0.845150000000     0.670000000000     0          
O        O      0.543075000000     0.905900000000     0.625000000000     0          
O        O      0.625000000000     0.793750000000     0.921750000000     0          
O        O      0.581400000000     0.692150000000     0.999200000000     0          
O        O      0.565250000000     0.654850000000     0.920000000000     0          
O        O      0.668600000000     0.807850000000     0.749200000000     0          
O        O      0.684750000000     0.845150000000     0.670000000000     0          
O        O      0.581400000000     0.807850000000     0.500800000000     0          
O        O      0.565250000000     0.845150000000     0.580000000000     0          
O        O      0.668600000000     0.692150000000     0.750800000000     0          
O        O      0.684750000000     0.654850000000     0.830000000000     0          
O        O      0.812500000000     0.125000000000     0.000000000000     0          
O        O      0.793600000000     0.057850000000     0.000800000000     0          
O        O      0.875000000000     0.077750000000     0.021400000000     0          
O        O      0.809750000000     0.095150000000     0.080000000000     0          
O        O      0.831925000000     0.155900000000     0.125000000000     0          
O        O      0.750000000000     0.132700000000     0.125000000000     0          
O        O      0.750000000000     0.000000000000     0.250000000000     0          
O        O      0.750000000000     0.043750000000     0.328250000000     0          
O        O      0.937500000000     0.375000000000     0.250000000000     0          
O        O      0.956400000000     0.442150000000     0.250800000000     0          
O        O      0.875000000000     0.422250000000     0.271400000000     0          
O        O      0.940250000000     0.404850000000     0.330000000000     0          
O        O      0.918075000000     0.344100000000     0.375000000000     0          
O        O      0.750000000000     0.367300000000     0.375000000000     0          
O        O      0.750000000000     0.000000000000     0.000000000000     0          
O        O      0.750000000000     0.456250000000     0.078250000000     0          
O        O      0.812500000000     0.375000000000     0.000000000000     0          
O        O      0.793600000000     0.442150000000     0.499200000000     0          
O        O      0.875000000000     0.422250000000     0.478600000000     0          
O        O      0.809750000000     0.404850000000     0.420000000000     0          
O        O      0.831925000000     0.344100000000     0.375000000000     0          
O        O      0.750000000000     0.456250000000     0.171750000000     0          
O        O      0.937500000000     0.125000000000     0.250000000000     0          
O        O      0.956400000000     0.057850000000     0.249200000000     0          
O        O      0.875000000000     0.077750000000     0.228600000000     0          
O        O      0.940250000000     0.095150000000     0.170000000000     0          
O        O      0.918075000000     0.155900000000     0.125000000000     0          
O        O      0.750000000000     0.043750000000     0.421750000000     0          
O        O      0.937500000000     0.375000000000     0.000000000000     0          
O        O      0.956400000000     0.442150000000     0.499200000000     0          
O        O      0.940250000000     0.404850000000     0.420000000000     0          
O        O      0.812500000000     0.125000000000     0.250000000000     0          
O        O      0.793600000000     0.057850000000     0.249200000000     0          
O        O      0.809750000000     0.095150000000     0.170000000000     0          
O        O      0.937500000000     0.125000000000     0.000000000000     0          
O        O      0.956400000000     0.057850000000     0.000800000000     0          
O        O      0.940250000000     0.095150000000     0.080000000000     0          
O        O      0.812500000000     0.375000000000     0.250000000000     0          
O        O      0.793600000000     0.442150000000     0.250800000000     0          
O        O      0.809750000000     0.404850000000     0.330000000000     0          
O        O      0.918600000000     0.307850000000     0.000800000000     0          
O        O      0.750000000000     0.327750000000     0.021400000000     0          
O        O      0.934750000000     0.345150000000     0.080000000000     0          
O        O      0.956925000000     0.405900000000     0.125000000000     0          
O        O      0.875000000000     0.382700000000     0.125000000000     0          
O        O      0.875000000000     0.250000000000     0.250000000000     0          
O        O      0.875000000000     0.293750000000     0.328250000000     0          
O        O      0.831400000000     0.192150000000     0.250800000000     0          
O        O      0.750000000000     0.172250000000     0.271400000000     0          
O        O      0.815250000000     0.154850000000     0.330000000000     0          
O        O      0.793075000000     0.094100000000     0.375000000000     0          
O        O      0.875000000000     0.117300000000     0.375000000000     0          
O        O      0.875000000000     0.250000000000     0.000000000000     0          
O        O      0.875000000000     0.206250000000     0.078250000000     0          
O        O      0.918600000000     0.192150000000     0.499200000000     0          
O        O      0.750000000000     0.172250000000     0.478600000000     0          
O        O      0.934750000000     0.154850000000     0.420000000000     0          
O        O      0.956925000000     0.094100000000     0.375000000000     0          
O        O      0.875000000000     0.206250000000     0.171750000000     0          
O        O      0.831400000000     0.307850000000     0.249200000000     0          
O        O      0.750000000000     0.327750000000     0.228600000000     0          
O        O      0.815250000000     0.345150000000     0.170000000000     0          
O        O      0.793075000000     0.405900000000     0.125000000000     0          
O        O      0.875000000000     0.293750000000     0.421750000000     0          
O        O      0.831400000000     0.192150000000     0.499200000000     0          
O        O      0.815250000000     0.154850000000     0.420000000000     0          
O        O      0.918600000000     0.307850000000     0.249200000000     0          
O        O      0.934750000000     0.345150000000     0.170000000000     0          
O        O      0.831400000000     0.307850000000     0.000800000000     0          
O        O      0.815250000000     0.345150000000     0.080000000000     0          
O        O      0.918600000000     0.192150000000     0.250800000000     0          
O        O      0.934750000000     0.154850000000     0.330000000000     0          
O        O      0.812500000000     0.125000000000     0.500000000000     0          
O        O      0.793600000000     0.057850000000     0.500800000000     0          
O        O      0.875000000000     0.077750000000     0.521400000000     0          
O        O      0.809750000000     0.095150000000     0.580000000000     0          
O        O      0.831925000000     0.155900000000     0.625000000000     0          
O        O      0.750000000000     0.132700000000     0.625000000000     0          
O        O      0.750000000000     0.000000000000     0.750000000000     0          
O        O      0.750000000000     0.043750000000     0.828250000000     0          
O        O      0.937500000000     0.375000000000     0.750000000000     0          
O        O      0.956400000000     0.442150000000     0.750800000000     0          
O        O      0.875000000000     0.422250000000     0.771400000000     0          
O        O      0.940250000000     0.404850000000     0.830000000000     0          
O        O      0.918075000000     0.344100000000     0.875000000000     0          
O        O      0.750000000000     0.367300000000     0.875000000000     0          
O        O      0.750000000000     0.000000000000     0.500000000000     0          
O        O      0.750000000000     0.456250000000     0.578250000000     0          
O        O      0.812500000000     0.375000000000     0.500000000000     0          
O        O      0.793600000000     0.442150000000     0.999200000000     0          
O        O      0.875000000000     0.422250000000     0.978600000000     0          
O        O      0.809750000000     0.404850000000     0.920000000000     0          
O        O      0.831925000000     0.344100000000     0.875000000000     0          
O        O      0.750000000000     0.456250000000     0.671750000000     0          
O        O      0.937500000000     0.125000000000     0.750000000000     0          
O        O      0.956400000000     0.057850000000     0.749200000000     0          
O        O      0.875000000000     0.077750000000     0.728600000000     0          
O        O      0.940250000000     0.095150000000     0.670000000000     0          
O        O      0.918075000000     0.155900000000     0.625000000000     0          
O        O      0.750000000000     0.043750000000     0.921750000000     0          
O        O      0.937500000000     0.375000000000     0.500000000000     0          
O        O      0.956400000000     0.442150000000     0.999200000000     0          
O        O      0.940250000000     0.404850000000     0.920000000000     0          
O        O      0.812500000000     0.125000000000     0.750000000000     0          
O        O      0.793600000000     0.057850000000     0.749200000000     0          
O        O      0.809750000000     0.095150000000     0.670000000000     0          
O        O      0.937500000000     0.125000000000     0.500000000000     0          
O        O      0.956400000000     0.057850000000     0.500800000000     0          
O        O      0.940250000000     0.095150000000     0.580000000000     0          
O        O      0.812500000000     0.375000000000     0.750000000000     0          
O        O      0.793600000000     0.442150000000     0.750800000000     0          
O        O      0.809750000000     0.404850000000     0.830000000000     0          
O        O      0.918600000000     0.307850000000     0.500800000000     0          
O        O      0.750000000000     0.327750000000     0.521400000000     0          
O        O      0.934750000000     0.345150000000     0.580000000000     0          
O        O      0.956925000000     0.405900000000     0.625000000000     0          
O        O      0.875000000000     0.382700000000     0.625000000000     0          
O        O      0.875000000000     0.250000000000     0.750000000000     0          
O        O      0.875000000000     0.293750000000     0.828250000000     0          
O        O      0.831400000000     0.192150000000     0.750800000000     0          
O        O      0.750000000000     0.172250000000     0.771400000000     0          
O        O      0.815250000000     0.154850000000     0.830000000000     0          
O        O      0.793075000000     0.094100000000     0.875000000000     0          
O        O      0.875000000000     0.117300000000     0.875000000000     0          
O        O      0.875000000000     0.250000000000     0.500000000000     0          
O        O      0.875000000000     0.206250000000     0.578250000000     0          
O        O      0.918600000000     0.192150000000     0.999200000000     0          
O        O      0.750000000000     0.172250000000     0.978600000000     0          
O        O      0.934750000000     0.154850000000     0.920000000000     0          
O        O      0.956925000000     0.094100000000     0.875000000000     0          
O        O      0.875000000000     0.206250000000     0.671750000000     0          
O        O      0.831400000000     0.307850000000     0.749200000000     0          
O        O      0.750000000000     0.327750000000     0.728600000000     0          
O        O      0.815250000000     0.345150000000     0.670000000000     0          
O        O      0.793075000000     0.405900000000     0.625000000000     0          
O        O      0.875000000000     0.293750000000     0.921750000000     0          
O        O      0.831400000000     0.192150000000     0.999200000000     0          
O        O      0.815250000000     0.154850000000     0.920000000000     0          
O        O      0.918600000000     0.307850000000     0.749200000000     0          
O        O      0.934750000000     0.345150000000     0.670000000000     0          
O        O      0.831400000000     0.307850000000     0.500800000000     0          
O        O      0.815250000000     0.345150000000     0.580000000000     0          
O        O      0.918600000000     0.192150000000     0.750800000000     0          
O        O      0.934750000000     0.154850000000     0.830000000000     0          
O        O      0.812500000000     0.625000000000     0.000000000000     0          
O        O      0.793600000000     0.557850000000     0.000800000000     0          
O        O      0.875000000000     0.577750000000     0.021400000000     0          
O        O      0.809750000000     0.595150000000     0.080000000000     0          
O        O      0.831925000000     0.655900000000     0.125000000000     0          
O        O      0.750000000000     0.632700000000     0.125000000000     0          
O        O      0.750000000000     0.500000000000     0.250000000000     0          
O        O      0.750000000000     0.543750000000     0.328250000000     0          
O        O      0.937500000000     0.875000000000     0.250000000000     0          
O        O      0.956400000000     0.942150000000     0.250800000000     0          
O        O      0.875000000000     0.922250000000     0.271400000000     0          
O        O      0.940250000000     0.904850000000     0.330000000000     0          
O        O      0.918075000000     0.844100000000     0.375000000000     0          
O        O      0.750000000000     0.867300000000     0.375000000000     0          
O        O      0.750000000000     0.500000000000     0.000000000000     0          
O        O      0.750000000000     0.956250000000     0.078250000000     0          
O        O      0.812500000000     0.875000000000     0.000000000000     0          
O        O      0.793600000000     0.942150000000     0.499200000000     0          
O        O      0.875000000000     0.922250000000     0.478600000000     0          
O        O      0.809750000000     0.904850000000     0.420000000000     0          
O        O      0.831925000000     0.844100000000     0.375000000000     0          
O        O      0.750000000000     0.956250000000     0.171750000000     0          
O        O      0.937500000000     0.625000000000     0.250000000000     0          
O        O      0.956400000000     0.557850000000     0.249200000000     0          
O        O      0.875000000000     0.577750000000     0.228600000000     0          
O        O      0.940250000000     0.595150000000     0.170000000000     0          
O        O      0.918075000000     0.655900000000     0.125000000000     0          
O        O      0.750000000000     0.543750000000     0.421750000000     0          
O        O      0.937500000000     0.875000000000     0.000000000000     0          
O        O      0.956400000000     0.942150000000     0.499200000000     0          
O        O      0.940250000000     0.904850000000     0.420000000000     0          
O        O      0.812500000000     0.625000000000     0.250000000000     0          
O        O      0.793600000000     0.557850000000     0.249200000000     0          
O        O      0.809750000000     0.595150000000     0.170000000000     0          
O        O      0.937500000000     0.625000000000     0.000000000000     0          
O        O      0.956400000000     0.557850000000     0.000800000000     0          
O        O      0.940250000000     0.595150000000     0.080000000000     0          
O        O      0.812500000000     0.875000000000     0.250000000000     0          
O        O      0.793600000000     0.942150000000     0.250800000000     0          
O        O      0.809750000000     0.904850000000     0.330000000000     0          
O        O      0.918600000000     0.807850000000     0.000800000000     0          
O        O      0.750000000000     0.827750000000     0.021400000000     0          
O        O      0.934750000000     0.845150000000     0.080000000000     0          
O        O      0.956925000000     0.905900000000     0.125000000000     0          
O        O      0.875000000000     0.882700000000     0.125000000000     0          
O        O      0.875000000000     0.750000000000     0.250000000000     0          
O        O      0.875000000000     0.793750000000     0.328250000000     0          
O        O      0.831400000000     0.692150000000     0.250800000000     0          
O        O      0.750000000000     0.672250000000     0.271400000000     0          
O        O      0.815250000000     0.654850000000     0.330000000000     0          
O        O      0.793075000000     0.594100000000     0.375000000000     0          
O        O      0.875000000000     0.617300000000     0.375000000000     0          
O        O      0.875000000000     0.750000000000     0.000000000000     0          
O        O      0.875000000000     0.706250000000     0.078250000000     0          
O        O      0.918600000000     0.692150000000     0.499200000000     0          
O        O      0.750000000000     0.672250000000     0.478600000000     0          
O        O      0.934750000000     0.654850000000     0.420000000000     0          
O        O      0.956925000000     0.594100000000     0.375000000000     0          
O        O      0.875000000000     0.706250000000     0.171750000000     0          
O        O      0.831400000000     0.807850000000     0.249200000000     0          
O        O      0.750000000000     0.827750000000     0.228600000000     0          
O        O      0.815250000000     0.845150000000     0.170000000000     0          
O        O      0.793075000000     0.905900000000     0.125000000000     0          
O        O      0.875000000000     0.793750000000     0.421750000000     0          
O        O      0.831400000000     0.692150000000     0.499200000000     0          
O        O      0.815250000000     0.654850000000     0.420000000000     0          
O        O      0.918600000000     0.807850000000     0.249200000000     0          
O        O      0.934750000000     0.845150000000     0.170000000000     0          
O        O      0.831400000000     0.807850000000     0.000800000000     0          
O        O      0.815250000000     0.845150000000     0.080000000000     0          
O        O      0.918600000000     0.692150000000     0.250800000000     0          
O        O      0.934750000000     0.654850000000     0.330000000000     0          
O        O      0.812500000000     0.625000000000     0.500000000000     0          
O        O      0.793600000000     0.557850000000     0.500800000000     0          
O        O      0.875000000000     0.577750000000     0.521400000000     0          
O        O      0.809750000000     0.595150000000     0.580000000000     0          
O        O      0.831925000000     0.655900000000     0.625000000000     0          
O        O      0.750000000000     0.632700000000     0.625000000000     0          
O        O      0.750000000000     0.500000000000     0.750000000000     0          
O        O      0.750000000000     0.543750000000     0.828250000000     0          
O        O      0.937500000000     0.875000000000     0.750000000000     0          
O        O      0.956400000000     0.942150000000     0.750800000000     0          
O        O      0.875000000000     0.922250000000     0.771400000000     0          
O        O      0.940250000000     0.904850000000     0.830000000000     0          
O        O      0.918075000000     0.844100000000     0.875000000000     0          
O        O      0.750000000000     0.867300000000     0.875000000000     0          
O        O      0.750000000000     0.500000000000     0.500000000000     0          
O        O      0.750000000000     0.956250000000     0.578250000000     0          
O        O      0.812500000000     0.875000000000     0.500000000000     0          
O        O      0.793600000000     0.942150000000     0.999200000000     0          
O        O      0.875000000000     0.922250000000     0.978600000000     0          
O        O      0.809750000000     0.904850000000     0.920000000000     0          
O        O      0.831925000000     0.844100000000     0.875000000000     0          
O        O      0.750000000000     0.956250000000     0.671750000000     0          
O        O      0.937500000000     0.625000000000     0.750000000000     0          
O        O      0.956400000000     0.557850000000     0.749200000000     0          
O        O      0.875000000000     0.577750000000     0.728600000000     0          
O        O      0.940250000000     0.595150000000     0.670000000000     0          
O        O      0.918075000000     0.655900000000     0.625000000000     0          
O        O      0.750000000000     0.543750000000     0.921750000000     0          
O        O      0.937500000000     0.875000000000     0.500000000000     0          
O        O      0.956400000000     0.942150000000     0.999200000000     0          
O        O      0.940250000000     0.904850000000     0.920000000000     0          
O        O      0.812500000000     0.625000000000     0.750000000000     0          
O        O      0.793600000000     0.557850000000     0.749200000000     0          
O        O      0.809750000000     0.595150000000     0.670000000000     0          
O        O      0.937500000000     0.625000000000     0.500000000000     0          
O        O      0.956400000000     0.557850000000     0.500800000000     0          
O        O      0.940250000000     0.595150000000     0.580000000000     0          
O        O      0.812500000000     0.875000000000     0.750000000000     0          
O        O      0.793600000000     0.942150000000     0.750800000000     0          
O        O      0.809750000000     0.904850000000     0.830000000000     0          
O        O      0.918600000000     0.807850000000     0.500800000000     0          
O        O      0.750000000000     0.827750000000     0.521400000000     0          
O        O      0.934750000000     0.845150000000     0.580000000000     0          
O        O      0.956925000000     0.905900000000     0.625000000000     0          
O        O      0.875000000000     0.882700000000     0.625000000000     0          
O        O      0.875000000000     0.750000000000     0.750000000000     0          
O        O      0.875000000000     0.793750000000     0.828250000000     0          
O        O      0.831400000000     0.692150000000     0.750800000000     0          
O        O      0.750000000000     0.672250000000     0.771400000000     0          
O        O      0.815250000000     0.654850000000     0.830000000000     0          
O        O      0.793075000000     0.594100000000     0.875000000000     0          
O        O      0.875000000000     0.617300000000     0.875000000000     0          
O        O      0.875000000000     0.750000000000     0.500000000000     0          
O        O      0.875000000000     0.706250000000     0.578250000000     0          
O        O      0.918600000000     0.692150000000     0.999200000000     0          
O        O      0.750000000000     0.672250000000     0.978600000000     0          
O        O      0.934750000000     0.654850000000     0.920000000000     0          
O        O      0.956925000000     0.594100000000     0.875000000000     0          
O        O      0.875000000000     0.706250000000     0.671750000000     0          
O        O      0.831400000000     0.807850000000     0.749200000000     0          
O        O      0.750000000000     0.827750000000     0.728600000000     0          
O        O      0.815250000000     0.845150000000     0.670000000000     0          
O        O      0.793075000000     0.905900000000     0.625000000000     0          
O        O      0.875000000000     0.793750000000     0.921750000000     0          
O        O      0.831400000000     0.692150000000     0.999200000000     0          
O        O      0.815250000000     0.654850000000     0.920000000000     0          
O        O      0.918600000000     0.807850000000     0.749200000000     0          
O        O      0.934750000000     0.845150000000     0.670000000000     0          
O        O      0.831400000000     0.807850000000     0.500800000000     0          
O        O      0.815250000000     0.845150000000     0.580000000000     0          
O        O      0.918600000000     0.692150000000     0.750800000000     0          
O        O      0.934750000000     0.654850000000     0.830000000000     0          


