data_zeolite

_audit_creation_method RASPA-1.0
_audit_creation_date 2020-12-25
_audit_author_name ''

_cell_length_a    26.172
_cell_length_b    40.12
_cell_length_c    30.498
_cell_angle_alpha 90
_cell_angle_beta  90
_cell_angle_gamma 90
_cell_volume      32023.5

_symmetry_cell_setting          orthorhombic
_symmetry_space_group_name_Hall 'P 1'
_symmetry_space_group_name_H-M  'P 1'
_symmetry_Int_Tables_number     1

_symmetry_equiv_pos_as_xyz 'x,y,z'

loop_
_atom_site_label
_atom_site_type_symbol
_atom_site_fract_x
_atom_site_fract_y
_atom_site_fract_z
_atom_site_charge
O        O      0.071233333333     0.000000000000     0.000000000000     0          
O        O      0.000000000000     0.033650000000     0.291400000000     0          
O        O      0.083333333333     0.015100000000     0.250000000000     0          
O        O      0.087800000000     0.062000000000     0.309966666667     0          
O        O      0.166666666667     0.101350000000     0.296866666667     0          
O        O      0.083333333333     0.109000000000     0.250000000000     0          
O        O      0.083333333333     0.125000000000     0.000000000000     0          
T        Si     0.060500000000     0.027600000000     0.296200000000     0          
T        Si     0.105333333333     0.099300000000     0.297566666667     0          
O        O      0.095433333333     0.000000000000     0.166666666667     0          
O        O      0.166666666667     0.466350000000     0.124733333333     0          
O        O      0.083333333333     0.484900000000     0.083333333333     0          
O        O      0.078866666667     0.438000000000     0.143300000000     0          
O        O      0.000000000000     0.398650000000     0.130200000000     0          
O        O      0.083333333333     0.391000000000     0.083333333333     0          
O        O      0.083333333333     0.375000000000     0.166666666667     0          
T        Si     0.106166666667     0.472400000000     0.129533333333     0          
T        Si     0.061333333333     0.400700000000     0.130900000000     0          
O        O      0.000000000000     0.466350000000     0.041933333333     0          
O        O      0.087800000000     0.438000000000     0.023366666667     0          
O        O      0.166666666667     0.398650000000     0.036466666667     0          
O        O      0.083333333333     0.375000000000     0.000000000000     0          
T        Si     0.060500000000     0.472400000000     0.037133333333     0          
T        Si     0.105333333333     0.400700000000     0.035766666667     0          
O        O      0.166666666667     0.033650000000     0.208600000000     0          
O        O      0.078866666667     0.062000000000     0.190033333333     0          
O        O      0.000000000000     0.101350000000     0.203133333333     0          
O        O      0.083333333333     0.125000000000     0.166666666667     0          
T        Si     0.106166666667     0.027600000000     0.203800000000     0          
T        Si     0.061333333333     0.099300000000     0.202433333333     0          
O        O      0.262100000000     0.000000000000     0.000000000000     0          
O        O      0.250000000000     0.484900000000     0.083333333333     0          
O        O      0.245533333333     0.438000000000     0.023366666667     0          
O        O      0.250000000000     0.391000000000     0.083333333333     0          
O        O      0.250000000000     0.375000000000     0.000000000000     0          
T        Si     0.272833333333     0.472400000000     0.037133333333     0          
T        Si     0.228000000000     0.400700000000     0.035766666667     0          
O        O      0.237900000000     0.000000000000     0.166666666667     0          
O        O      0.250000000000     0.015100000000     0.250000000000     0          
O        O      0.254466666667     0.062000000000     0.190033333333     0          
O        O      0.250000000000     0.109000000000     0.250000000000     0          
O        O      0.250000000000     0.125000000000     0.166666666667     0          
T        Si     0.227166666667     0.027600000000     0.203800000000     0          
T        Si     0.272000000000     0.099300000000     0.202433333333     0          
O        O      0.245533333333     0.062000000000     0.309966666667     0          
O        O      0.250000000000     0.125000000000     0.000000000000     0          
T        Si     0.272833333333     0.027600000000     0.296200000000     0          
T        Si     0.228000000000     0.099300000000     0.297566666667     0          
O        O      0.254466666667     0.438000000000     0.143300000000     0          
O        O      0.250000000000     0.375000000000     0.166666666667     0          
T        Si     0.227166666667     0.472400000000     0.129533333333     0          
T        Si     0.272000000000     0.400700000000     0.130900000000     0          
O        O      0.237900000000     0.250000000000     0.000000000000     0          
O        O      0.166666666667     0.283650000000     0.291400000000     0          
O        O      0.250000000000     0.265100000000     0.250000000000     0          
O        O      0.254466666667     0.312000000000     0.309966666667     0          
O        O      0.000000000000     0.351350000000     0.296866666667     0          
O        O      0.250000000000     0.359000000000     0.250000000000     0          
T        Si     0.227166666667     0.277600000000     0.296200000000     0          
T        Si     0.272000000000     0.349300000000     0.297566666667     0          
O        O      0.262100000000     0.250000000000     0.166666666667     0          
O        O      0.000000000000     0.216350000000     0.124733333333     0          
O        O      0.250000000000     0.234900000000     0.083333333333     0          
O        O      0.245533333333     0.188000000000     0.143300000000     0          
O        O      0.166666666667     0.148650000000     0.130200000000     0          
O        O      0.250000000000     0.141000000000     0.083333333333     0          
T        Si     0.272833333333     0.222400000000     0.129533333333     0          
T        Si     0.228000000000     0.150700000000     0.130900000000     0          
O        O      0.166666666667     0.216350000000     0.041933333333     0          
O        O      0.254466666667     0.188000000000     0.023366666667     0          
O        O      0.000000000000     0.148650000000     0.036466666667     0          
T        Si     0.227166666667     0.222400000000     0.037133333333     0          
T        Si     0.272000000000     0.150700000000     0.035766666667     0          
O        O      0.000000000000     0.283650000000     0.208600000000     0          
O        O      0.245533333333     0.312000000000     0.190033333333     0          
O        O      0.166666666667     0.351350000000     0.203133333333     0          
T        Si     0.272833333333     0.277600000000     0.203800000000     0          
T        Si     0.228000000000     0.349300000000     0.202433333333     0          
O        O      0.095433333333     0.250000000000     0.000000000000     0          
O        O      0.083333333333     0.234900000000     0.083333333333     0          
O        O      0.078866666667     0.188000000000     0.023366666667     0          
O        O      0.083333333333     0.141000000000     0.083333333333     0          
T        Si     0.106166666667     0.222400000000     0.037133333333     0          
T        Si     0.061333333333     0.150700000000     0.035766666667     0          
O        O      0.071233333333     0.250000000000     0.166666666667     0          
O        O      0.083333333333     0.265100000000     0.250000000000     0          
O        O      0.087800000000     0.312000000000     0.190033333333     0          
O        O      0.083333333333     0.359000000000     0.250000000000     0          
T        Si     0.060500000000     0.277600000000     0.203800000000     0          
T        Si     0.105333333333     0.349300000000     0.202433333333     0          
O        O      0.078866666667     0.312000000000     0.309966666667     0          
T        Si     0.106166666667     0.277600000000     0.296200000000     0          
T        Si     0.061333333333     0.349300000000     0.297566666667     0          
O        O      0.087800000000     0.188000000000     0.143300000000     0          
T        Si     0.060500000000     0.222400000000     0.129533333333     0          
T        Si     0.105333333333     0.150700000000     0.130900000000     0          
O        O      0.071233333333     0.000000000000     0.333333333333     0          
O        O      0.000000000000     0.033650000000     0.624733333333     0          
O        O      0.083333333333     0.015100000000     0.583333333333     0          
O        O      0.087800000000     0.062000000000     0.643300000000     0          
O        O      0.166666666667     0.101350000000     0.630200000000     0          
O        O      0.083333333333     0.109000000000     0.583333333333     0          
O        O      0.083333333333     0.125000000000     0.333333333333     0          
T        Si     0.060500000000     0.027600000000     0.629533333333     0          
T        Si     0.105333333333     0.099300000000     0.630900000000     0          
O        O      0.095433333333     0.000000000000     0.500000000000     0          
O        O      0.166666666667     0.466350000000     0.458066666667     0          
O        O      0.083333333333     0.484900000000     0.416666666667     0          
O        O      0.078866666667     0.438000000000     0.476633333333     0          
O        O      0.000000000000     0.398650000000     0.463533333333     0          
O        O      0.083333333333     0.391000000000     0.416666666667     0          
O        O      0.083333333333     0.375000000000     0.500000000000     0          
T        Si     0.106166666667     0.472400000000     0.462866666667     0          
T        Si     0.061333333333     0.400700000000     0.464233333333     0          
O        O      0.000000000000     0.466350000000     0.375266666667     0          
O        O      0.087800000000     0.438000000000     0.356700000000     0          
O        O      0.166666666667     0.398650000000     0.369800000000     0          
O        O      0.083333333333     0.375000000000     0.333333333333     0          
T        Si     0.060500000000     0.472400000000     0.370466666667     0          
T        Si     0.105333333333     0.400700000000     0.369100000000     0          
O        O      0.166666666667     0.033650000000     0.541933333333     0          
O        O      0.078866666667     0.062000000000     0.523366666667     0          
O        O      0.000000000000     0.101350000000     0.536466666667     0          
O        O      0.083333333333     0.125000000000     0.500000000000     0          
T        Si     0.106166666667     0.027600000000     0.537133333333     0          
T        Si     0.061333333333     0.099300000000     0.535766666667     0          
O        O      0.262100000000     0.000000000000     0.333333333333     0          
O        O      0.250000000000     0.484900000000     0.416666666667     0          
O        O      0.245533333333     0.438000000000     0.356700000000     0          
O        O      0.250000000000     0.391000000000     0.416666666667     0          
O        O      0.250000000000     0.375000000000     0.333333333333     0          
T        Si     0.272833333333     0.472400000000     0.370466666667     0          
T        Si     0.228000000000     0.400700000000     0.369100000000     0          
O        O      0.237900000000     0.000000000000     0.500000000000     0          
O        O      0.250000000000     0.015100000000     0.583333333333     0          
O        O      0.254466666667     0.062000000000     0.523366666667     0          
O        O      0.250000000000     0.109000000000     0.583333333333     0          
O        O      0.250000000000     0.125000000000     0.500000000000     0          
T        Si     0.227166666667     0.027600000000     0.537133333333     0          
T        Si     0.272000000000     0.099300000000     0.535766666667     0          
O        O      0.245533333333     0.062000000000     0.643300000000     0          
O        O      0.250000000000     0.125000000000     0.333333333333     0          
T        Si     0.272833333333     0.027600000000     0.629533333333     0          
T        Si     0.228000000000     0.099300000000     0.630900000000     0          
O        O      0.254466666667     0.438000000000     0.476633333333     0          
O        O      0.250000000000     0.375000000000     0.500000000000     0          
T        Si     0.227166666667     0.472400000000     0.462866666667     0          
T        Si     0.272000000000     0.400700000000     0.464233333333     0          
O        O      0.237900000000     0.250000000000     0.333333333333     0          
O        O      0.166666666667     0.283650000000     0.624733333333     0          
O        O      0.250000000000     0.265100000000     0.583333333333     0          
O        O      0.254466666667     0.312000000000     0.643300000000     0          
O        O      0.000000000000     0.351350000000     0.630200000000     0          
O        O      0.250000000000     0.359000000000     0.583333333333     0          
T        Si     0.227166666667     0.277600000000     0.629533333333     0          
T        Si     0.272000000000     0.349300000000     0.630900000000     0          
O        O      0.262100000000     0.250000000000     0.500000000000     0          
O        O      0.000000000000     0.216350000000     0.458066666667     0          
O        O      0.250000000000     0.234900000000     0.416666666667     0          
O        O      0.245533333333     0.188000000000     0.476633333333     0          
O        O      0.166666666667     0.148650000000     0.463533333333     0          
O        O      0.250000000000     0.141000000000     0.416666666667     0          
T        Si     0.272833333333     0.222400000000     0.462866666667     0          
T        Si     0.228000000000     0.150700000000     0.464233333333     0          
O        O      0.166666666667     0.216350000000     0.375266666667     0          
O        O      0.254466666667     0.188000000000     0.356700000000     0          
O        O      0.000000000000     0.148650000000     0.369800000000     0          
T        Si     0.227166666667     0.222400000000     0.370466666667     0          
T        Si     0.272000000000     0.150700000000     0.369100000000     0          
O        O      0.000000000000     0.283650000000     0.541933333333     0          
O        O      0.245533333333     0.312000000000     0.523366666667     0          
O        O      0.166666666667     0.351350000000     0.536466666667     0          
T        Si     0.272833333333     0.277600000000     0.537133333333     0          
T        Si     0.228000000000     0.349300000000     0.535766666667     0          
O        O      0.095433333333     0.250000000000     0.333333333333     0          
O        O      0.083333333333     0.234900000000     0.416666666667     0          
O        O      0.078866666667     0.188000000000     0.356700000000     0          
O        O      0.083333333333     0.141000000000     0.416666666667     0          
T        Si     0.106166666667     0.222400000000     0.370466666667     0          
T        Si     0.061333333333     0.150700000000     0.369100000000     0          
O        O      0.071233333333     0.250000000000     0.500000000000     0          
O        O      0.083333333333     0.265100000000     0.583333333333     0          
O        O      0.087800000000     0.312000000000     0.523366666667     0          
O        O      0.083333333333     0.359000000000     0.583333333333     0          
T        Si     0.060500000000     0.277600000000     0.537133333333     0          
T        Si     0.105333333333     0.349300000000     0.535766666667     0          
O        O      0.078866666667     0.312000000000     0.643300000000     0          
T        Si     0.106166666667     0.277600000000     0.629533333333     0          
T        Si     0.061333333333     0.349300000000     0.630900000000     0          
O        O      0.087800000000     0.188000000000     0.476633333333     0          
T        Si     0.060500000000     0.222400000000     0.462866666667     0          
T        Si     0.105333333333     0.150700000000     0.464233333333     0          
O        O      0.071233333333     0.000000000000     0.666666666667     0          
O        O      0.000000000000     0.033650000000     0.958066666667     0          
O        O      0.083333333333     0.015100000000     0.916666666667     0          
O        O      0.087800000000     0.062000000000     0.976633333333     0          
O        O      0.166666666667     0.101350000000     0.963533333333     0          
O        O      0.083333333333     0.109000000000     0.916666666667     0          
O        O      0.083333333333     0.125000000000     0.666666666667     0          
T        Si     0.060500000000     0.027600000000     0.962866666667     0          
T        Si     0.105333333333     0.099300000000     0.964233333333     0          
O        O      0.095433333333     0.000000000000     0.833333333333     0          
O        O      0.166666666667     0.466350000000     0.791400000000     0          
O        O      0.083333333333     0.484900000000     0.750000000000     0          
O        O      0.078866666667     0.438000000000     0.809966666667     0          
O        O      0.000000000000     0.398650000000     0.796866666667     0          
O        O      0.083333333333     0.391000000000     0.750000000000     0          
O        O      0.083333333333     0.375000000000     0.833333333333     0          
T        Si     0.106166666667     0.472400000000     0.796200000000     0          
T        Si     0.061333333333     0.400700000000     0.797566666667     0          
O        O      0.000000000000     0.466350000000     0.708600000000     0          
O        O      0.087800000000     0.438000000000     0.690033333333     0          
O        O      0.166666666667     0.398650000000     0.703133333333     0          
O        O      0.083333333333     0.375000000000     0.666666666667     0          
T        Si     0.060500000000     0.472400000000     0.703800000000     0          
T        Si     0.105333333333     0.400700000000     0.702433333333     0          
O        O      0.166666666667     0.033650000000     0.875266666667     0          
O        O      0.078866666667     0.062000000000     0.856700000000     0          
O        O      0.000000000000     0.101350000000     0.869800000000     0          
O        O      0.083333333333     0.125000000000     0.833333333333     0          
T        Si     0.106166666667     0.027600000000     0.870466666667     0          
T        Si     0.061333333333     0.099300000000     0.869100000000     0          
O        O      0.262100000000     0.000000000000     0.666666666667     0          
O        O      0.250000000000     0.484900000000     0.750000000000     0          
O        O      0.245533333333     0.438000000000     0.690033333333     0          
O        O      0.250000000000     0.391000000000     0.750000000000     0          
O        O      0.250000000000     0.375000000000     0.666666666667     0          
T        Si     0.272833333333     0.472400000000     0.703800000000     0          
T        Si     0.228000000000     0.400700000000     0.702433333333     0          
O        O      0.237900000000     0.000000000000     0.833333333333     0          
O        O      0.250000000000     0.015100000000     0.916666666667     0          
O        O      0.254466666667     0.062000000000     0.856700000000     0          
O        O      0.250000000000     0.109000000000     0.916666666667     0          
O        O      0.250000000000     0.125000000000     0.833333333333     0          
T        Si     0.227166666667     0.027600000000     0.870466666667     0          
T        Si     0.272000000000     0.099300000000     0.869100000000     0          
O        O      0.245533333333     0.062000000000     0.976633333333     0          
O        O      0.250000000000     0.125000000000     0.666666666667     0          
T        Si     0.272833333333     0.027600000000     0.962866666667     0          
T        Si     0.228000000000     0.099300000000     0.964233333333     0          
O        O      0.254466666667     0.438000000000     0.809966666667     0          
O        O      0.250000000000     0.375000000000     0.833333333333     0          
T        Si     0.227166666667     0.472400000000     0.796200000000     0          
T        Si     0.272000000000     0.400700000000     0.797566666667     0          
O        O      0.237900000000     0.250000000000     0.666666666667     0          
O        O      0.166666666667     0.283650000000     0.958066666667     0          
O        O      0.250000000000     0.265100000000     0.916666666667     0          
O        O      0.254466666667     0.312000000000     0.976633333333     0          
O        O      0.000000000000     0.351350000000     0.963533333333     0          
O        O      0.250000000000     0.359000000000     0.916666666667     0          
T        Si     0.227166666667     0.277600000000     0.962866666667     0          
T        Si     0.272000000000     0.349300000000     0.964233333333     0          
O        O      0.262100000000     0.250000000000     0.833333333333     0          
O        O      0.000000000000     0.216350000000     0.791400000000     0          
O        O      0.250000000000     0.234900000000     0.750000000000     0          
O        O      0.245533333333     0.188000000000     0.809966666667     0          
O        O      0.166666666667     0.148650000000     0.796866666667     0          
O        O      0.250000000000     0.141000000000     0.750000000000     0          
T        Si     0.272833333333     0.222400000000     0.796200000000     0          
T        Si     0.228000000000     0.150700000000     0.797566666667     0          
O        O      0.166666666667     0.216350000000     0.708600000000     0          
O        O      0.254466666667     0.188000000000     0.690033333333     0          
O        O      0.000000000000     0.148650000000     0.703133333333     0          
T        Si     0.227166666667     0.222400000000     0.703800000000     0          
T        Si     0.272000000000     0.150700000000     0.702433333333     0          
O        O      0.000000000000     0.283650000000     0.875266666667     0          
O        O      0.245533333333     0.312000000000     0.856700000000     0          
O        O      0.166666666667     0.351350000000     0.869800000000     0          
T        Si     0.272833333333     0.277600000000     0.870466666667     0          
T        Si     0.228000000000     0.349300000000     0.869100000000     0          
O        O      0.095433333333     0.250000000000     0.666666666667     0          
O        O      0.083333333333     0.234900000000     0.750000000000     0          
O        O      0.078866666667     0.188000000000     0.690033333333     0          
O        O      0.083333333333     0.141000000000     0.750000000000     0          
T        Si     0.106166666667     0.222400000000     0.703800000000     0          
T        Si     0.061333333333     0.150700000000     0.702433333333     0          
O        O      0.071233333333     0.250000000000     0.833333333333     0          
O        O      0.083333333333     0.265100000000     0.916666666667     0          
O        O      0.087800000000     0.312000000000     0.856700000000     0          
O        O      0.083333333333     0.359000000000     0.916666666667     0          
T        Si     0.060500000000     0.277600000000     0.870466666667     0          
T        Si     0.105333333333     0.349300000000     0.869100000000     0          
O        O      0.078866666667     0.312000000000     0.976633333333     0          
T        Si     0.106166666667     0.277600000000     0.962866666667     0          
T        Si     0.061333333333     0.349300000000     0.964233333333     0          
O        O      0.087800000000     0.188000000000     0.809966666667     0          
T        Si     0.060500000000     0.222400000000     0.796200000000     0          
T        Si     0.105333333333     0.150700000000     0.797566666667     0          
O        O      0.071233333333     0.500000000000     0.000000000000     0          
O        O      0.000000000000     0.533650000000     0.291400000000     0          
O        O      0.083333333333     0.515100000000     0.250000000000     0          
O        O      0.087800000000     0.562000000000     0.309966666667     0          
O        O      0.166666666667     0.601350000000     0.296866666667     0          
O        O      0.083333333333     0.609000000000     0.250000000000     0          
O        O      0.083333333333     0.625000000000     0.000000000000     0          
T        Si     0.060500000000     0.527600000000     0.296200000000     0          
T        Si     0.105333333333     0.599300000000     0.297566666667     0          
O        O      0.095433333333     0.500000000000     0.166666666667     0          
O        O      0.166666666667     0.966350000000     0.124733333333     0          
O        O      0.083333333333     0.984900000000     0.083333333333     0          
O        O      0.078866666667     0.938000000000     0.143300000000     0          
O        O      0.000000000000     0.898650000000     0.130200000000     0          
O        O      0.083333333333     0.891000000000     0.083333333333     0          
O        O      0.083333333333     0.875000000000     0.166666666667     0          
T        Si     0.106166666667     0.972400000000     0.129533333333     0          
T        Si     0.061333333333     0.900700000000     0.130900000000     0          
O        O      0.000000000000     0.966350000000     0.041933333333     0          
O        O      0.087800000000     0.938000000000     0.023366666667     0          
O        O      0.166666666667     0.898650000000     0.036466666667     0          
O        O      0.083333333333     0.875000000000     0.000000000000     0          
T        Si     0.060500000000     0.972400000000     0.037133333333     0          
T        Si     0.105333333333     0.900700000000     0.035766666667     0          
O        O      0.166666666667     0.533650000000     0.208600000000     0          
O        O      0.078866666667     0.562000000000     0.190033333333     0          
O        O      0.000000000000     0.601350000000     0.203133333333     0          
O        O      0.083333333333     0.625000000000     0.166666666667     0          
T        Si     0.106166666667     0.527600000000     0.203800000000     0          
T        Si     0.061333333333     0.599300000000     0.202433333333     0          
O        O      0.262100000000     0.500000000000     0.000000000000     0          
O        O      0.250000000000     0.984900000000     0.083333333333     0          
O        O      0.245533333333     0.938000000000     0.023366666667     0          
O        O      0.250000000000     0.891000000000     0.083333333333     0          
O        O      0.250000000000     0.875000000000     0.000000000000     0          
T        Si     0.272833333333     0.972400000000     0.037133333333     0          
T        Si     0.228000000000     0.900700000000     0.035766666667     0          
O        O      0.237900000000     0.500000000000     0.166666666667     0          
O        O      0.250000000000     0.515100000000     0.250000000000     0          
O        O      0.254466666667     0.562000000000     0.190033333333     0          
O        O      0.250000000000     0.609000000000     0.250000000000     0          
O        O      0.250000000000     0.625000000000     0.166666666667     0          
T        Si     0.227166666667     0.527600000000     0.203800000000     0          
T        Si     0.272000000000     0.599300000000     0.202433333333     0          
O        O      0.245533333333     0.562000000000     0.309966666667     0          
O        O      0.250000000000     0.625000000000     0.000000000000     0          
T        Si     0.272833333333     0.527600000000     0.296200000000     0          
T        Si     0.228000000000     0.599300000000     0.297566666667     0          
O        O      0.254466666667     0.938000000000     0.143300000000     0          
O        O      0.250000000000     0.875000000000     0.166666666667     0          
T        Si     0.227166666667     0.972400000000     0.129533333333     0          
T        Si     0.272000000000     0.900700000000     0.130900000000     0          
O        O      0.237900000000     0.750000000000     0.000000000000     0          
O        O      0.166666666667     0.783650000000     0.291400000000     0          
O        O      0.250000000000     0.765100000000     0.250000000000     0          
O        O      0.254466666667     0.812000000000     0.309966666667     0          
O        O      0.000000000000     0.851350000000     0.296866666667     0          
O        O      0.250000000000     0.859000000000     0.250000000000     0          
T        Si     0.227166666667     0.777600000000     0.296200000000     0          
T        Si     0.272000000000     0.849300000000     0.297566666667     0          
O        O      0.262100000000     0.750000000000     0.166666666667     0          
O        O      0.000000000000     0.716350000000     0.124733333333     0          
O        O      0.250000000000     0.734900000000     0.083333333333     0          
O        O      0.245533333333     0.688000000000     0.143300000000     0          
O        O      0.166666666667     0.648650000000     0.130200000000     0          
O        O      0.250000000000     0.641000000000     0.083333333333     0          
T        Si     0.272833333333     0.722400000000     0.129533333333     0          
T        Si     0.228000000000     0.650700000000     0.130900000000     0          
O        O      0.166666666667     0.716350000000     0.041933333333     0          
O        O      0.254466666667     0.688000000000     0.023366666667     0          
O        O      0.000000000000     0.648650000000     0.036466666667     0          
T        Si     0.227166666667     0.722400000000     0.037133333333     0          
T        Si     0.272000000000     0.650700000000     0.035766666667     0          
O        O      0.000000000000     0.783650000000     0.208600000000     0          
O        O      0.245533333333     0.812000000000     0.190033333333     0          
O        O      0.166666666667     0.851350000000     0.203133333333     0          
T        Si     0.272833333333     0.777600000000     0.203800000000     0          
T        Si     0.228000000000     0.849300000000     0.202433333333     0          
O        O      0.095433333333     0.750000000000     0.000000000000     0          
O        O      0.083333333333     0.734900000000     0.083333333333     0          
O        O      0.078866666667     0.688000000000     0.023366666667     0          
O        O      0.083333333333     0.641000000000     0.083333333333     0          
T        Si     0.106166666667     0.722400000000     0.037133333333     0          
T        Si     0.061333333333     0.650700000000     0.035766666667     0          
O        O      0.071233333333     0.750000000000     0.166666666667     0          
O        O      0.083333333333     0.765100000000     0.250000000000     0          
O        O      0.087800000000     0.812000000000     0.190033333333     0          
O        O      0.083333333333     0.859000000000     0.250000000000     0          
T        Si     0.060500000000     0.777600000000     0.203800000000     0          
T        Si     0.105333333333     0.849300000000     0.202433333333     0          
O        O      0.078866666667     0.812000000000     0.309966666667     0          
T        Si     0.106166666667     0.777600000000     0.296200000000     0          
T        Si     0.061333333333     0.849300000000     0.297566666667     0          
O        O      0.087800000000     0.688000000000     0.143300000000     0          
T        Si     0.060500000000     0.722400000000     0.129533333333     0          
T        Si     0.105333333333     0.650700000000     0.130900000000     0          
O        O      0.071233333333     0.500000000000     0.333333333333     0          
O        O      0.000000000000     0.533650000000     0.624733333333     0          
O        O      0.083333333333     0.515100000000     0.583333333333     0          
O        O      0.087800000000     0.562000000000     0.643300000000     0          
O        O      0.166666666667     0.601350000000     0.630200000000     0          
O        O      0.083333333333     0.609000000000     0.583333333333     0          
O        O      0.083333333333     0.625000000000     0.333333333333     0          
T        Si     0.060500000000     0.527600000000     0.629533333333     0          
T        Si     0.105333333333     0.599300000000     0.630900000000     0          
O        O      0.095433333333     0.500000000000     0.500000000000     0          
O        O      0.166666666667     0.966350000000     0.458066666667     0          
O        O      0.083333333333     0.984900000000     0.416666666667     0          
O        O      0.078866666667     0.938000000000     0.476633333333     0          
O        O      0.000000000000     0.898650000000     0.463533333333     0          
O        O      0.083333333333     0.891000000000     0.416666666667     0          
O        O      0.083333333333     0.875000000000     0.500000000000     0          
T        Si     0.106166666667     0.972400000000     0.462866666667     0          
T        Si     0.061333333333     0.900700000000     0.464233333333     0          
O        O      0.000000000000     0.966350000000     0.375266666667     0          
O        O      0.087800000000     0.938000000000     0.356700000000     0          
O        O      0.166666666667     0.898650000000     0.369800000000     0          
O        O      0.083333333333     0.875000000000     0.333333333333     0          
T        Si     0.060500000000     0.972400000000     0.370466666667     0          
T        Si     0.105333333333     0.900700000000     0.369100000000     0          
O        O      0.166666666667     0.533650000000     0.541933333333     0          
O        O      0.078866666667     0.562000000000     0.523366666667     0          
O        O      0.000000000000     0.601350000000     0.536466666667     0          
O        O      0.083333333333     0.625000000000     0.500000000000     0          
T        Si     0.106166666667     0.527600000000     0.537133333333     0          
T        Si     0.061333333333     0.599300000000     0.535766666667     0          
O        O      0.262100000000     0.500000000000     0.333333333333     0          
O        O      0.250000000000     0.984900000000     0.416666666667     0          
O        O      0.245533333333     0.938000000000     0.356700000000     0          
O        O      0.250000000000     0.891000000000     0.416666666667     0          
O        O      0.250000000000     0.875000000000     0.333333333333     0          
T        Si     0.272833333333     0.972400000000     0.370466666667     0          
T        Si     0.228000000000     0.900700000000     0.369100000000     0          
O        O      0.237900000000     0.500000000000     0.500000000000     0          
O        O      0.250000000000     0.515100000000     0.583333333333     0          
O        O      0.254466666667     0.562000000000     0.523366666667     0          
O        O      0.250000000000     0.609000000000     0.583333333333     0          
O        O      0.250000000000     0.625000000000     0.500000000000     0          
T        Si     0.227166666667     0.527600000000     0.537133333333     0          
T        Si     0.272000000000     0.599300000000     0.535766666667     0          
O        O      0.245533333333     0.562000000000     0.643300000000     0          
O        O      0.250000000000     0.625000000000     0.333333333333     0          
T        Si     0.272833333333     0.527600000000     0.629533333333     0          
T        Si     0.228000000000     0.599300000000     0.630900000000     0          
O        O      0.254466666667     0.938000000000     0.476633333333     0          
O        O      0.250000000000     0.875000000000     0.500000000000     0          
T        Si     0.227166666667     0.972400000000     0.462866666667     0          
T        Si     0.272000000000     0.900700000000     0.464233333333     0          
O        O      0.237900000000     0.750000000000     0.333333333333     0          
O        O      0.166666666667     0.783650000000     0.624733333333     0          
O        O      0.250000000000     0.765100000000     0.583333333333     0          
O        O      0.254466666667     0.812000000000     0.643300000000     0          
O        O      0.000000000000     0.851350000000     0.630200000000     0          
O        O      0.250000000000     0.859000000000     0.583333333333     0          
T        Si     0.227166666667     0.777600000000     0.629533333333     0          
T        Si     0.272000000000     0.849300000000     0.630900000000     0          
O        O      0.262100000000     0.750000000000     0.500000000000     0          
O        O      0.000000000000     0.716350000000     0.458066666667     0          
O        O      0.250000000000     0.734900000000     0.416666666667     0          
O        O      0.245533333333     0.688000000000     0.476633333333     0          
O        O      0.166666666667     0.648650000000     0.463533333333     0          
O        O      0.250000000000     0.641000000000     0.416666666667     0          
T        Si     0.272833333333     0.722400000000     0.462866666667     0          
T        Si     0.228000000000     0.650700000000     0.464233333333     0          
O        O      0.166666666667     0.716350000000     0.375266666667     0          
O        O      0.254466666667     0.688000000000     0.356700000000     0          
O        O      0.000000000000     0.648650000000     0.369800000000     0          
T        Si     0.227166666667     0.722400000000     0.370466666667     0          
T        Si     0.272000000000     0.650700000000     0.369100000000     0          
O        O      0.000000000000     0.783650000000     0.541933333333     0          
O        O      0.245533333333     0.812000000000     0.523366666667     0          
O        O      0.166666666667     0.851350000000     0.536466666667     0          
T        Si     0.272833333333     0.777600000000     0.537133333333     0          
T        Si     0.228000000000     0.849300000000     0.535766666667     0          
O        O      0.095433333333     0.750000000000     0.333333333333     0          
O        O      0.083333333333     0.734900000000     0.416666666667     0          
O        O      0.078866666667     0.688000000000     0.356700000000     0          
O        O      0.083333333333     0.641000000000     0.416666666667     0          
T        Si     0.106166666667     0.722400000000     0.370466666667     0          
T        Si     0.061333333333     0.650700000000     0.369100000000     0          
O        O      0.071233333333     0.750000000000     0.500000000000     0          
O        O      0.083333333333     0.765100000000     0.583333333333     0          
O        O      0.087800000000     0.812000000000     0.523366666667     0          
O        O      0.083333333333     0.859000000000     0.583333333333     0          
T        Si     0.060500000000     0.777600000000     0.537133333333     0          
T        Si     0.105333333333     0.849300000000     0.535766666667     0          
O        O      0.078866666667     0.812000000000     0.643300000000     0          
T        Si     0.106166666667     0.777600000000     0.629533333333     0          
T        Si     0.061333333333     0.849300000000     0.630900000000     0          
O        O      0.087800000000     0.688000000000     0.476633333333     0          
T        Si     0.060500000000     0.722400000000     0.462866666667     0          
T        Si     0.105333333333     0.650700000000     0.464233333333     0          
O        O      0.071233333333     0.500000000000     0.666666666667     0          
O        O      0.000000000000     0.533650000000     0.958066666667     0          
O        O      0.083333333333     0.515100000000     0.916666666667     0          
O        O      0.087800000000     0.562000000000     0.976633333333     0          
O        O      0.166666666667     0.601350000000     0.963533333333     0          
O        O      0.083333333333     0.609000000000     0.916666666667     0          
O        O      0.083333333333     0.625000000000     0.666666666667     0          
T        Si     0.060500000000     0.527600000000     0.962866666667     0          
T        Si     0.105333333333     0.599300000000     0.964233333333     0          
O        O      0.095433333333     0.500000000000     0.833333333333     0          
O        O      0.166666666667     0.966350000000     0.791400000000     0          
O        O      0.083333333333     0.984900000000     0.750000000000     0          
O        O      0.078866666667     0.938000000000     0.809966666667     0          
O        O      0.000000000000     0.898650000000     0.796866666667     0          
O        O      0.083333333333     0.891000000000     0.750000000000     0          
O        O      0.083333333333     0.875000000000     0.833333333333     0          
T        Si     0.106166666667     0.972400000000     0.796200000000     0          
T        Si     0.061333333333     0.900700000000     0.797566666667     0          
O        O      0.000000000000     0.966350000000     0.708600000000     0          
O        O      0.087800000000     0.938000000000     0.690033333333     0          
O        O      0.166666666667     0.898650000000     0.703133333333     0          
O        O      0.083333333333     0.875000000000     0.666666666667     0          
T        Si     0.060500000000     0.972400000000     0.703800000000     0          
T        Si     0.105333333333     0.900700000000     0.702433333333     0          
O        O      0.166666666667     0.533650000000     0.875266666667     0          
O        O      0.078866666667     0.562000000000     0.856700000000     0          
O        O      0.000000000000     0.601350000000     0.869800000000     0          
O        O      0.083333333333     0.625000000000     0.833333333333     0          
T        Si     0.106166666667     0.527600000000     0.870466666667     0          
T        Si     0.061333333333     0.599300000000     0.869100000000     0          
O        O      0.262100000000     0.500000000000     0.666666666667     0          
O        O      0.250000000000     0.984900000000     0.750000000000     0          
O        O      0.245533333333     0.938000000000     0.690033333333     0          
O        O      0.250000000000     0.891000000000     0.750000000000     0          
O        O      0.250000000000     0.875000000000     0.666666666667     0          
T        Si     0.272833333333     0.972400000000     0.703800000000     0          
T        Si     0.228000000000     0.900700000000     0.702433333333     0          
O        O      0.237900000000     0.500000000000     0.833333333333     0          
O        O      0.250000000000     0.515100000000     0.916666666667     0          
O        O      0.254466666667     0.562000000000     0.856700000000     0          
O        O      0.250000000000     0.609000000000     0.916666666667     0          
O        O      0.250000000000     0.625000000000     0.833333333333     0          
T        Si     0.227166666667     0.527600000000     0.870466666667     0          
T        Si     0.272000000000     0.599300000000     0.869100000000     0          
O        O      0.245533333333     0.562000000000     0.976633333333     0          
O        O      0.250000000000     0.625000000000     0.666666666667     0          
T        Si     0.272833333333     0.527600000000     0.962866666667     0          
T        Si     0.228000000000     0.599300000000     0.964233333333     0          
O        O      0.254466666667     0.938000000000     0.809966666667     0          
O        O      0.250000000000     0.875000000000     0.833333333333     0          
T        Si     0.227166666667     0.972400000000     0.796200000000     0          
T        Si     0.272000000000     0.900700000000     0.797566666667     0          
O        O      0.237900000000     0.750000000000     0.666666666667     0          
O        O      0.166666666667     0.783650000000     0.958066666667     0          
O        O      0.250000000000     0.765100000000     0.916666666667     0          
O        O      0.254466666667     0.812000000000     0.976633333333     0          
O        O      0.000000000000     0.851350000000     0.963533333333     0          
O        O      0.250000000000     0.859000000000     0.916666666667     0          
T        Si     0.227166666667     0.777600000000     0.962866666667     0          
T        Si     0.272000000000     0.849300000000     0.964233333333     0          
O        O      0.262100000000     0.750000000000     0.833333333333     0          
O        O      0.000000000000     0.716350000000     0.791400000000     0          
O        O      0.250000000000     0.734900000000     0.750000000000     0          
O        O      0.245533333333     0.688000000000     0.809966666667     0          
O        O      0.166666666667     0.648650000000     0.796866666667     0          
O        O      0.250000000000     0.641000000000     0.750000000000     0          
T        Si     0.272833333333     0.722400000000     0.796200000000     0          
T        Si     0.228000000000     0.650700000000     0.797566666667     0          
O        O      0.166666666667     0.716350000000     0.708600000000     0          
O        O      0.254466666667     0.688000000000     0.690033333333     0          
O        O      0.000000000000     0.648650000000     0.703133333333     0          
T        Si     0.227166666667     0.722400000000     0.703800000000     0          
T        Si     0.272000000000     0.650700000000     0.702433333333     0          
O        O      0.000000000000     0.783650000000     0.875266666667     0          
O        O      0.245533333333     0.812000000000     0.856700000000     0          
O        O      0.166666666667     0.851350000000     0.869800000000     0          
T        Si     0.272833333333     0.777600000000     0.870466666667     0          
T        Si     0.228000000000     0.849300000000     0.869100000000     0          
O        O      0.095433333333     0.750000000000     0.666666666667     0          
O        O      0.083333333333     0.734900000000     0.750000000000     0          
O        O      0.078866666667     0.688000000000     0.690033333333     0          
O        O      0.083333333333     0.641000000000     0.750000000000     0          
T        Si     0.106166666667     0.722400000000     0.703800000000     0          
T        Si     0.061333333333     0.650700000000     0.702433333333     0          
O        O      0.071233333333     0.750000000000     0.833333333333     0          
O        O      0.083333333333     0.765100000000     0.916666666667     0          
O        O      0.087800000000     0.812000000000     0.856700000000     0          
O        O      0.083333333333     0.859000000000     0.916666666667     0          
T        Si     0.060500000000     0.777600000000     0.870466666667     0          
T        Si     0.105333333333     0.849300000000     0.869100000000     0          
O        O      0.078866666667     0.812000000000     0.976633333333     0          
T        Si     0.106166666667     0.777600000000     0.962866666667     0          
T        Si     0.061333333333     0.849300000000     0.964233333333     0          
O        O      0.087800000000     0.688000000000     0.809966666667     0          
T        Si     0.060500000000     0.722400000000     0.796200000000     0          
T        Si     0.105333333333     0.650700000000     0.797566666667     0          
O        O      0.404566666667     0.000000000000     0.000000000000     0          
O        O      0.333333333333     0.033650000000     0.291400000000     0          
O        O      0.416666666667     0.015100000000     0.250000000000     0          
O        O      0.421133333333     0.062000000000     0.309966666667     0          
O        O      0.500000000000     0.101350000000     0.296866666667     0          
O        O      0.416666666667     0.109000000000     0.250000000000     0          
O        O      0.416666666667     0.125000000000     0.000000000000     0          
T        Si     0.393833333333     0.027600000000     0.296200000000     0          
T        Si     0.438666666667     0.099300000000     0.297566666667     0          
O        O      0.428766666667     0.000000000000     0.166666666667     0          
O        O      0.500000000000     0.466350000000     0.124733333333     0          
O        O      0.416666666667     0.484900000000     0.083333333333     0          
O        O      0.412200000000     0.438000000000     0.143300000000     0          
O        O      0.333333333333     0.398650000000     0.130200000000     0          
O        O      0.416666666667     0.391000000000     0.083333333333     0          
O        O      0.416666666667     0.375000000000     0.166666666667     0          
T        Si     0.439500000000     0.472400000000     0.129533333333     0          
T        Si     0.394666666667     0.400700000000     0.130900000000     0          
O        O      0.333333333333     0.466350000000     0.041933333333     0          
O        O      0.421133333333     0.438000000000     0.023366666667     0          
O        O      0.500000000000     0.398650000000     0.036466666667     0          
O        O      0.416666666667     0.375000000000     0.000000000000     0          
T        Si     0.393833333333     0.472400000000     0.037133333333     0          
T        Si     0.438666666667     0.400700000000     0.035766666667     0          
O        O      0.500000000000     0.033650000000     0.208600000000     0          
O        O      0.412200000000     0.062000000000     0.190033333333     0          
O        O      0.333333333333     0.101350000000     0.203133333333     0          
O        O      0.416666666667     0.125000000000     0.166666666667     0          
T        Si     0.439500000000     0.027600000000     0.203800000000     0          
T        Si     0.394666666667     0.099300000000     0.202433333333     0          
O        O      0.595433333333     0.000000000000     0.000000000000     0          
O        O      0.583333333333     0.484900000000     0.083333333333     0          
O        O      0.578866666667     0.438000000000     0.023366666667     0          
O        O      0.583333333333     0.391000000000     0.083333333333     0          
O        O      0.583333333333     0.375000000000     0.000000000000     0          
T        Si     0.606166666667     0.472400000000     0.037133333333     0          
T        Si     0.561333333333     0.400700000000     0.035766666667     0          
O        O      0.571233333333     0.000000000000     0.166666666667     0          
O        O      0.583333333333     0.015100000000     0.250000000000     0          
O        O      0.587800000000     0.062000000000     0.190033333333     0          
O        O      0.583333333333     0.109000000000     0.250000000000     0          
O        O      0.583333333333     0.125000000000     0.166666666667     0          
T        Si     0.560500000000     0.027600000000     0.203800000000     0          
T        Si     0.605333333333     0.099300000000     0.202433333333     0          
O        O      0.578866666667     0.062000000000     0.309966666667     0          
O        O      0.583333333333     0.125000000000     0.000000000000     0          
T        Si     0.606166666667     0.027600000000     0.296200000000     0          
T        Si     0.561333333333     0.099300000000     0.297566666667     0          
O        O      0.587800000000     0.438000000000     0.143300000000     0          
O        O      0.583333333333     0.375000000000     0.166666666667     0          
T        Si     0.560500000000     0.472400000000     0.129533333333     0          
T        Si     0.605333333333     0.400700000000     0.130900000000     0          
O        O      0.571233333333     0.250000000000     0.000000000000     0          
O        O      0.500000000000     0.283650000000     0.291400000000     0          
O        O      0.583333333333     0.265100000000     0.250000000000     0          
O        O      0.587800000000     0.312000000000     0.309966666667     0          
O        O      0.333333333333     0.351350000000     0.296866666667     0          
O        O      0.583333333333     0.359000000000     0.250000000000     0          
T        Si     0.560500000000     0.277600000000     0.296200000000     0          
T        Si     0.605333333333     0.349300000000     0.297566666667     0          
O        O      0.595433333333     0.250000000000     0.166666666667     0          
O        O      0.333333333333     0.216350000000     0.124733333333     0          
O        O      0.583333333333     0.234900000000     0.083333333333     0          
O        O      0.578866666667     0.188000000000     0.143300000000     0          
O        O      0.500000000000     0.148650000000     0.130200000000     0          
O        O      0.583333333333     0.141000000000     0.083333333333     0          
T        Si     0.606166666667     0.222400000000     0.129533333333     0          
T        Si     0.561333333333     0.150700000000     0.130900000000     0          
O        O      0.500000000000     0.216350000000     0.041933333333     0          
O        O      0.587800000000     0.188000000000     0.023366666667     0          
O        O      0.333333333333     0.148650000000     0.036466666667     0          
T        Si     0.560500000000     0.222400000000     0.037133333333     0          
T        Si     0.605333333333     0.150700000000     0.035766666667     0          
O        O      0.333333333333     0.283650000000     0.208600000000     0          
O        O      0.578866666667     0.312000000000     0.190033333333     0          
O        O      0.500000000000     0.351350000000     0.203133333333     0          
T        Si     0.606166666667     0.277600000000     0.203800000000     0          
T        Si     0.561333333333     0.349300000000     0.202433333333     0          
O        O      0.428766666667     0.250000000000     0.000000000000     0          
O        O      0.416666666667     0.234900000000     0.083333333333     0          
O        O      0.412200000000     0.188000000000     0.023366666667     0          
O        O      0.416666666667     0.141000000000     0.083333333333     0          
T        Si     0.439500000000     0.222400000000     0.037133333333     0          
T        Si     0.394666666667     0.150700000000     0.035766666667     0          
O        O      0.404566666667     0.250000000000     0.166666666667     0          
O        O      0.416666666667     0.265100000000     0.250000000000     0          
O        O      0.421133333333     0.312000000000     0.190033333333     0          
O        O      0.416666666667     0.359000000000     0.250000000000     0          
T        Si     0.393833333333     0.277600000000     0.203800000000     0          
T        Si     0.438666666667     0.349300000000     0.202433333333     0          
O        O      0.412200000000     0.312000000000     0.309966666667     0          
T        Si     0.439500000000     0.277600000000     0.296200000000     0          
T        Si     0.394666666667     0.349300000000     0.297566666667     0          
O        O      0.421133333333     0.188000000000     0.143300000000     0          
T        Si     0.393833333333     0.222400000000     0.129533333333     0          
T        Si     0.438666666667     0.150700000000     0.130900000000     0          
O        O      0.404566666667     0.000000000000     0.333333333333     0          
O        O      0.333333333333     0.033650000000     0.624733333333     0          
O        O      0.416666666667     0.015100000000     0.583333333333     0          
O        O      0.421133333333     0.062000000000     0.643300000000     0          
O        O      0.500000000000     0.101350000000     0.630200000000     0          
O        O      0.416666666667     0.109000000000     0.583333333333     0          
O        O      0.416666666667     0.125000000000     0.333333333333     0          
T        Si     0.393833333333     0.027600000000     0.629533333333     0          
T        Si     0.438666666667     0.099300000000     0.630900000000     0          
O        O      0.428766666667     0.000000000000     0.500000000000     0          
O        O      0.500000000000     0.466350000000     0.458066666667     0          
O        O      0.416666666667     0.484900000000     0.416666666667     0          
O        O      0.412200000000     0.438000000000     0.476633333333     0          
O        O      0.333333333333     0.398650000000     0.463533333333     0          
O        O      0.416666666667     0.391000000000     0.416666666667     0          
O        O      0.416666666667     0.375000000000     0.500000000000     0          
T        Si     0.439500000000     0.472400000000     0.462866666667     0          
T        Si     0.394666666667     0.400700000000     0.464233333333     0          
O        O      0.333333333333     0.466350000000     0.375266666667     0          
O        O      0.421133333333     0.438000000000     0.356700000000     0          
O        O      0.500000000000     0.398650000000     0.369800000000     0          
O        O      0.416666666667     0.375000000000     0.333333333333     0          
T        Si     0.393833333333     0.472400000000     0.370466666667     0          
T        Si     0.438666666667     0.400700000000     0.369100000000     0          
O        O      0.500000000000     0.033650000000     0.541933333333     0          
O        O      0.412200000000     0.062000000000     0.523366666667     0          
O        O      0.333333333333     0.101350000000     0.536466666667     0          
O        O      0.416666666667     0.125000000000     0.500000000000     0          
T        Si     0.439500000000     0.027600000000     0.537133333333     0          
T        Si     0.394666666667     0.099300000000     0.535766666667     0          
O        O      0.595433333333     0.000000000000     0.333333333333     0          
O        O      0.583333333333     0.484900000000     0.416666666667     0          
O        O      0.578866666667     0.438000000000     0.356700000000     0          
O        O      0.583333333333     0.391000000000     0.416666666667     0          
O        O      0.583333333333     0.375000000000     0.333333333333     0          
T        Si     0.606166666667     0.472400000000     0.370466666667     0          
T        Si     0.561333333333     0.400700000000     0.369100000000     0          
O        O      0.571233333333     0.000000000000     0.500000000000     0          
O        O      0.583333333333     0.015100000000     0.583333333333     0          
O        O      0.587800000000     0.062000000000     0.523366666667     0          
O        O      0.583333333333     0.109000000000     0.583333333333     0          
O        O      0.583333333333     0.125000000000     0.500000000000     0          
T        Si     0.560500000000     0.027600000000     0.537133333333     0          
T        Si     0.605333333333     0.099300000000     0.535766666667     0          
O        O      0.578866666667     0.062000000000     0.643300000000     0          
O        O      0.583333333333     0.125000000000     0.333333333333     0          
T        Si     0.606166666667     0.027600000000     0.629533333333     0          
T        Si     0.561333333333     0.099300000000     0.630900000000     0          
O        O      0.587800000000     0.438000000000     0.476633333333     0          
O        O      0.583333333333     0.375000000000     0.500000000000     0          
T        Si     0.560500000000     0.472400000000     0.462866666667     0          
T        Si     0.605333333333     0.400700000000     0.464233333333     0          
O        O      0.571233333333     0.250000000000     0.333333333333     0          
O        O      0.500000000000     0.283650000000     0.624733333333     0          
O        O      0.583333333333     0.265100000000     0.583333333333     0          
O        O      0.587800000000     0.312000000000     0.643300000000     0          
O        O      0.333333333333     0.351350000000     0.630200000000     0          
O        O      0.583333333333     0.359000000000     0.583333333333     0          
T        Si     0.560500000000     0.277600000000     0.629533333333     0          
T        Si     0.605333333333     0.349300000000     0.630900000000     0          
O        O      0.595433333333     0.250000000000     0.500000000000     0          
O        O      0.333333333333     0.216350000000     0.458066666667     0          
O        O      0.583333333333     0.234900000000     0.416666666667     0          
O        O      0.578866666667     0.188000000000     0.476633333333     0          
O        O      0.500000000000     0.148650000000     0.463533333333     0          
O        O      0.583333333333     0.141000000000     0.416666666667     0          
T        Si     0.606166666667     0.222400000000     0.462866666667     0          
T        Si     0.561333333333     0.150700000000     0.464233333333     0          
O        O      0.500000000000     0.216350000000     0.375266666667     0          
O        O      0.587800000000     0.188000000000     0.356700000000     0          
O        O      0.333333333333     0.148650000000     0.369800000000     0          
T        Si     0.560500000000     0.222400000000     0.370466666667     0          
T        Si     0.605333333333     0.150700000000     0.369100000000     0          
O        O      0.333333333333     0.283650000000     0.541933333333     0          
O        O      0.578866666667     0.312000000000     0.523366666667     0          
O        O      0.500000000000     0.351350000000     0.536466666667     0          
T        Si     0.606166666667     0.277600000000     0.537133333333     0          
T        Si     0.561333333333     0.349300000000     0.535766666667     0          
O        O      0.428766666667     0.250000000000     0.333333333333     0          
O        O      0.416666666667     0.234900000000     0.416666666667     0          
O        O      0.412200000000     0.188000000000     0.356700000000     0          
O        O      0.416666666667     0.141000000000     0.416666666667     0          
T        Si     0.439500000000     0.222400000000     0.370466666667     0          
T        Si     0.394666666667     0.150700000000     0.369100000000     0          
O        O      0.404566666667     0.250000000000     0.500000000000     0          
O        O      0.416666666667     0.265100000000     0.583333333333     0          
O        O      0.421133333333     0.312000000000     0.523366666667     0          
O        O      0.416666666667     0.359000000000     0.583333333333     0          
T        Si     0.393833333333     0.277600000000     0.537133333333     0          
T        Si     0.438666666667     0.349300000000     0.535766666667     0          
O        O      0.412200000000     0.312000000000     0.643300000000     0          
T        Si     0.439500000000     0.277600000000     0.629533333333     0          
T        Si     0.394666666667     0.349300000000     0.630900000000     0          
O        O      0.421133333333     0.188000000000     0.476633333333     0          
T        Si     0.393833333333     0.222400000000     0.462866666667     0          
T        Si     0.438666666667     0.150700000000     0.464233333333     0          
O        O      0.404566666667     0.000000000000     0.666666666667     0          
O        O      0.333333333333     0.033650000000     0.958066666667     0          
O        O      0.416666666667     0.015100000000     0.916666666667     0          
O        O      0.421133333333     0.062000000000     0.976633333333     0          
O        O      0.500000000000     0.101350000000     0.963533333333     0          
O        O      0.416666666667     0.109000000000     0.916666666667     0          
O        O      0.416666666667     0.125000000000     0.666666666667     0          
T        Si     0.393833333333     0.027600000000     0.962866666667     0          
T        Si     0.438666666667     0.099300000000     0.964233333333     0          
O        O      0.428766666667     0.000000000000     0.833333333333     0          
O        O      0.500000000000     0.466350000000     0.791400000000     0          
O        O      0.416666666667     0.484900000000     0.750000000000     0          
O        O      0.412200000000     0.438000000000     0.809966666667     0          
O        O      0.333333333333     0.398650000000     0.796866666667     0          
O        O      0.416666666667     0.391000000000     0.750000000000     0          
O        O      0.416666666667     0.375000000000     0.833333333333     0          
T        Si     0.439500000000     0.472400000000     0.796200000000     0          
T        Si     0.394666666667     0.400700000000     0.797566666667     0          
O        O      0.333333333333     0.466350000000     0.708600000000     0          
O        O      0.421133333333     0.438000000000     0.690033333333     0          
O        O      0.500000000000     0.398650000000     0.703133333333     0          
O        O      0.416666666667     0.375000000000     0.666666666667     0          
T        Si     0.393833333333     0.472400000000     0.703800000000     0          
T        Si     0.438666666667     0.400700000000     0.702433333333     0          
O        O      0.500000000000     0.033650000000     0.875266666667     0          
O        O      0.412200000000     0.062000000000     0.856700000000     0          
O        O      0.333333333333     0.101350000000     0.869800000000     0          
O        O      0.416666666667     0.125000000000     0.833333333333     0          
T        Si     0.439500000000     0.027600000000     0.870466666667     0          
T        Si     0.394666666667     0.099300000000     0.869100000000     0          
O        O      0.595433333333     0.000000000000     0.666666666667     0          
O        O      0.583333333333     0.484900000000     0.750000000000     0          
O        O      0.578866666667     0.438000000000     0.690033333333     0          
O        O      0.583333333333     0.391000000000     0.750000000000     0          
O        O      0.583333333333     0.375000000000     0.666666666667     0          
T        Si     0.606166666667     0.472400000000     0.703800000000     0          
T        Si     0.561333333333     0.400700000000     0.702433333333     0          
O        O      0.571233333333     0.000000000000     0.833333333333     0          
O        O      0.583333333333     0.015100000000     0.916666666667     0          
O        O      0.587800000000     0.062000000000     0.856700000000     0          
O        O      0.583333333333     0.109000000000     0.916666666667     0          
O        O      0.583333333333     0.125000000000     0.833333333333     0          
T        Si     0.560500000000     0.027600000000     0.870466666667     0          
T        Si     0.605333333333     0.099300000000     0.869100000000     0          
O        O      0.578866666667     0.062000000000     0.976633333333     0          
O        O      0.583333333333     0.125000000000     0.666666666667     0          
T        Si     0.606166666667     0.027600000000     0.962866666667     0          
T        Si     0.561333333333     0.099300000000     0.964233333333     0          
O        O      0.587800000000     0.438000000000     0.809966666667     0          
O        O      0.583333333333     0.375000000000     0.833333333333     0          
T        Si     0.560500000000     0.472400000000     0.796200000000     0          
T        Si     0.605333333333     0.400700000000     0.797566666667     0          
O        O      0.571233333333     0.250000000000     0.666666666667     0          
O        O      0.500000000000     0.283650000000     0.958066666667     0          
O        O      0.583333333333     0.265100000000     0.916666666667     0          
O        O      0.587800000000     0.312000000000     0.976633333333     0          
O        O      0.333333333333     0.351350000000     0.963533333333     0          
O        O      0.583333333333     0.359000000000     0.916666666667     0          
T        Si     0.560500000000     0.277600000000     0.962866666667     0          
T        Si     0.605333333333     0.349300000000     0.964233333333     0          
O        O      0.595433333333     0.250000000000     0.833333333333     0          
O        O      0.333333333333     0.216350000000     0.791400000000     0          
O        O      0.583333333333     0.234900000000     0.750000000000     0          
O        O      0.578866666667     0.188000000000     0.809966666667     0          
O        O      0.500000000000     0.148650000000     0.796866666667     0          
O        O      0.583333333333     0.141000000000     0.750000000000     0          
T        Si     0.606166666667     0.222400000000     0.796200000000     0          
T        Si     0.561333333333     0.150700000000     0.797566666667     0          
O        O      0.500000000000     0.216350000000     0.708600000000     0          
O        O      0.587800000000     0.188000000000     0.690033333333     0          
O        O      0.333333333333     0.148650000000     0.703133333333     0          
T        Si     0.560500000000     0.222400000000     0.703800000000     0          
T        Si     0.605333333333     0.150700000000     0.702433333333     0          
O        O      0.333333333333     0.283650000000     0.875266666667     0          
O        O      0.578866666667     0.312000000000     0.856700000000     0          
O        O      0.500000000000     0.351350000000     0.869800000000     0          
T        Si     0.606166666667     0.277600000000     0.870466666667     0          
T        Si     0.561333333333     0.349300000000     0.869100000000     0          
O        O      0.428766666667     0.250000000000     0.666666666667     0          
O        O      0.416666666667     0.234900000000     0.750000000000     0          
O        O      0.412200000000     0.188000000000     0.690033333333     0          
O        O      0.416666666667     0.141000000000     0.750000000000     0          
T        Si     0.439500000000     0.222400000000     0.703800000000     0          
T        Si     0.394666666667     0.150700000000     0.702433333333     0          
O        O      0.404566666667     0.250000000000     0.833333333333     0          
O        O      0.416666666667     0.265100000000     0.916666666667     0          
O        O      0.421133333333     0.312000000000     0.856700000000     0          
O        O      0.416666666667     0.359000000000     0.916666666667     0          
T        Si     0.393833333333     0.277600000000     0.870466666667     0          
T        Si     0.438666666667     0.349300000000     0.869100000000     0          
O        O      0.412200000000     0.312000000000     0.976633333333     0          
T        Si     0.439500000000     0.277600000000     0.962866666667     0          
T        Si     0.394666666667     0.349300000000     0.964233333333     0          
O        O      0.421133333333     0.188000000000     0.809966666667     0          
T        Si     0.393833333333     0.222400000000     0.796200000000     0          
T        Si     0.438666666667     0.150700000000     0.797566666667     0          
O        O      0.404566666667     0.500000000000     0.000000000000     0          
O        O      0.333333333333     0.533650000000     0.291400000000     0          
O        O      0.416666666667     0.515100000000     0.250000000000     0          
O        O      0.421133333333     0.562000000000     0.309966666667     0          
O        O      0.500000000000     0.601350000000     0.296866666667     0          
O        O      0.416666666667     0.609000000000     0.250000000000     0          
O        O      0.416666666667     0.625000000000     0.000000000000     0          
T        Si     0.393833333333     0.527600000000     0.296200000000     0          
T        Si     0.438666666667     0.599300000000     0.297566666667     0          
O        O      0.428766666667     0.500000000000     0.166666666667     0          
O        O      0.500000000000     0.966350000000     0.124733333333     0          
O        O      0.416666666667     0.984900000000     0.083333333333     0          
O        O      0.412200000000     0.938000000000     0.143300000000     0          
O        O      0.333333333333     0.898650000000     0.130200000000     0          
O        O      0.416666666667     0.891000000000     0.083333333333     0          
O        O      0.416666666667     0.875000000000     0.166666666667     0          
T        Si     0.439500000000     0.972400000000     0.129533333333     0          
T        Si     0.394666666667     0.900700000000     0.130900000000     0          
O        O      0.333333333333     0.966350000000     0.041933333333     0          
O        O      0.421133333333     0.938000000000     0.023366666667     0          
O        O      0.500000000000     0.898650000000     0.036466666667     0          
O        O      0.416666666667     0.875000000000     0.000000000000     0          
T        Si     0.393833333333     0.972400000000     0.037133333333     0          
T        Si     0.438666666667     0.900700000000     0.035766666667     0          
O        O      0.500000000000     0.533650000000     0.208600000000     0          
O        O      0.412200000000     0.562000000000     0.190033333333     0          
O        O      0.333333333333     0.601350000000     0.203133333333     0          
O        O      0.416666666667     0.625000000000     0.166666666667     0          
T        Si     0.439500000000     0.527600000000     0.203800000000     0          
T        Si     0.394666666667     0.599300000000     0.202433333333     0          
O        O      0.595433333333     0.500000000000     0.000000000000     0          
O        O      0.583333333333     0.984900000000     0.083333333333     0          
O        O      0.578866666667     0.938000000000     0.023366666667     0          
O        O      0.583333333333     0.891000000000     0.083333333333     0          
O        O      0.583333333333     0.875000000000     0.000000000000     0          
T        Si     0.606166666667     0.972400000000     0.037133333333     0          
T        Si     0.561333333333     0.900700000000     0.035766666667     0          
O        O      0.571233333333     0.500000000000     0.166666666667     0          
O        O      0.583333333333     0.515100000000     0.250000000000     0          
O        O      0.587800000000     0.562000000000     0.190033333333     0          
O        O      0.583333333333     0.609000000000     0.250000000000     0          
O        O      0.583333333333     0.625000000000     0.166666666667     0          
T        Si     0.560500000000     0.527600000000     0.203800000000     0          
T        Si     0.605333333333     0.599300000000     0.202433333333     0          
O        O      0.578866666667     0.562000000000     0.309966666667     0          
O        O      0.583333333333     0.625000000000     0.000000000000     0          
T        Si     0.606166666667     0.527600000000     0.296200000000     0          
T        Si     0.561333333333     0.599300000000     0.297566666667     0          
O        O      0.587800000000     0.938000000000     0.143300000000     0          
O        O      0.583333333333     0.875000000000     0.166666666667     0          
T        Si     0.560500000000     0.972400000000     0.129533333333     0          
T        Si     0.605333333333     0.900700000000     0.130900000000     0          
O        O      0.571233333333     0.750000000000     0.000000000000     0          
O        O      0.500000000000     0.783650000000     0.291400000000     0          
O        O      0.583333333333     0.765100000000     0.250000000000     0          
O        O      0.587800000000     0.812000000000     0.309966666667     0          
O        O      0.333333333333     0.851350000000     0.296866666667     0          
O        O      0.583333333333     0.859000000000     0.250000000000     0          
T        Si     0.560500000000     0.777600000000     0.296200000000     0          
T        Si     0.605333333333     0.849300000000     0.297566666667     0          
O        O      0.595433333333     0.750000000000     0.166666666667     0          
O        O      0.333333333333     0.716350000000     0.124733333333     0          
O        O      0.583333333333     0.734900000000     0.083333333333     0          
O        O      0.578866666667     0.688000000000     0.143300000000     0          
O        O      0.500000000000     0.648650000000     0.130200000000     0          
O        O      0.583333333333     0.641000000000     0.083333333333     0          
T        Si     0.606166666667     0.722400000000     0.129533333333     0          
T        Si     0.561333333333     0.650700000000     0.130900000000     0          
O        O      0.500000000000     0.716350000000     0.041933333333     0          
O        O      0.587800000000     0.688000000000     0.023366666667     0          
O        O      0.333333333333     0.648650000000     0.036466666667     0          
T        Si     0.560500000000     0.722400000000     0.037133333333     0          
T        Si     0.605333333333     0.650700000000     0.035766666667     0          
O        O      0.333333333333     0.783650000000     0.208600000000     0          
O        O      0.578866666667     0.812000000000     0.190033333333     0          
O        O      0.500000000000     0.851350000000     0.203133333333     0          
T        Si     0.606166666667     0.777600000000     0.203800000000     0          
T        Si     0.561333333333     0.849300000000     0.202433333333     0          
O        O      0.428766666667     0.750000000000     0.000000000000     0          
O        O      0.416666666667     0.734900000000     0.083333333333     0          
O        O      0.412200000000     0.688000000000     0.023366666667     0          
O        O      0.416666666667     0.641000000000     0.083333333333     0          
T        Si     0.439500000000     0.722400000000     0.037133333333     0          
T        Si     0.394666666667     0.650700000000     0.035766666667     0          
O        O      0.404566666667     0.750000000000     0.166666666667     0          
O        O      0.416666666667     0.765100000000     0.250000000000     0          
O        O      0.421133333333     0.812000000000     0.190033333333     0          
O        O      0.416666666667     0.859000000000     0.250000000000     0          
T        Si     0.393833333333     0.777600000000     0.203800000000     0          
T        Si     0.438666666667     0.849300000000     0.202433333333     0          
O        O      0.412200000000     0.812000000000     0.309966666667     0          
T        Si     0.439500000000     0.777600000000     0.296200000000     0          
T        Si     0.394666666667     0.849300000000     0.297566666667     0          
O        O      0.421133333333     0.688000000000     0.143300000000     0          
T        Si     0.393833333333     0.722400000000     0.129533333333     0          
T        Si     0.438666666667     0.650700000000     0.130900000000     0          
O        O      0.404566666667     0.500000000000     0.333333333333     0          
O        O      0.333333333333     0.533650000000     0.624733333333     0          
O        O      0.416666666667     0.515100000000     0.583333333333     0          
O        O      0.421133333333     0.562000000000     0.643300000000     0          
O        O      0.500000000000     0.601350000000     0.630200000000     0          
O        O      0.416666666667     0.609000000000     0.583333333333     0          
O        O      0.416666666667     0.625000000000     0.333333333333     0          
T        Si     0.393833333333     0.527600000000     0.629533333333     0          
T        Si     0.438666666667     0.599300000000     0.630900000000     0          
O        O      0.428766666667     0.500000000000     0.500000000000     0          
O        O      0.500000000000     0.966350000000     0.458066666667     0          
O        O      0.416666666667     0.984900000000     0.416666666667     0          
O        O      0.412200000000     0.938000000000     0.476633333333     0          
O        O      0.333333333333     0.898650000000     0.463533333333     0          
O        O      0.416666666667     0.891000000000     0.416666666667     0          
O        O      0.416666666667     0.875000000000     0.500000000000     0          
T        Si     0.439500000000     0.972400000000     0.462866666667     0          
T        Si     0.394666666667     0.900700000000     0.464233333333     0          
O        O      0.333333333333     0.966350000000     0.375266666667     0          
O        O      0.421133333333     0.938000000000     0.356700000000     0          
O        O      0.500000000000     0.898650000000     0.369800000000     0          
O        O      0.416666666667     0.875000000000     0.333333333333     0          
T        Si     0.393833333333     0.972400000000     0.370466666667     0          
T        Si     0.438666666667     0.900700000000     0.369100000000     0          
O        O      0.500000000000     0.533650000000     0.541933333333     0          
O        O      0.412200000000     0.562000000000     0.523366666667     0          
O        O      0.333333333333     0.601350000000     0.536466666667     0          
O        O      0.416666666667     0.625000000000     0.500000000000     0          
T        Si     0.439500000000     0.527600000000     0.537133333333     0          
T        Si     0.394666666667     0.599300000000     0.535766666667     0          
O        O      0.595433333333     0.500000000000     0.333333333333     0          
O        O      0.583333333333     0.984900000000     0.416666666667     0          
O        O      0.578866666667     0.938000000000     0.356700000000     0          
O        O      0.583333333333     0.891000000000     0.416666666667     0          
O        O      0.583333333333     0.875000000000     0.333333333333     0          
T        Si     0.606166666667     0.972400000000     0.370466666667     0          
T        Si     0.561333333333     0.900700000000     0.369100000000     0          
O        O      0.571233333333     0.500000000000     0.500000000000     0          
O        O      0.583333333333     0.515100000000     0.583333333333     0          
O        O      0.587800000000     0.562000000000     0.523366666667     0          
O        O      0.583333333333     0.609000000000     0.583333333333     0          
O        O      0.583333333333     0.625000000000     0.500000000000     0          
T        Si     0.560500000000     0.527600000000     0.537133333333     0          
T        Si     0.605333333333     0.599300000000     0.535766666667     0          
O        O      0.578866666667     0.562000000000     0.643300000000     0          
O        O      0.583333333333     0.625000000000     0.333333333333     0          
T        Si     0.606166666667     0.527600000000     0.629533333333     0          
T        Si     0.561333333333     0.599300000000     0.630900000000     0          
O        O      0.587800000000     0.938000000000     0.476633333333     0          
O        O      0.583333333333     0.875000000000     0.500000000000     0          
T        Si     0.560500000000     0.972400000000     0.462866666667     0          
T        Si     0.605333333333     0.900700000000     0.464233333333     0          
O        O      0.571233333333     0.750000000000     0.333333333333     0          
O        O      0.500000000000     0.783650000000     0.624733333333     0          
O        O      0.583333333333     0.765100000000     0.583333333333     0          
O        O      0.587800000000     0.812000000000     0.643300000000     0          
O        O      0.333333333333     0.851350000000     0.630200000000     0          
O        O      0.583333333333     0.859000000000     0.583333333333     0          
T        Si     0.560500000000     0.777600000000     0.629533333333     0          
T        Si     0.605333333333     0.849300000000     0.630900000000     0          
O        O      0.595433333333     0.750000000000     0.500000000000     0          
O        O      0.333333333333     0.716350000000     0.458066666667     0          
O        O      0.583333333333     0.734900000000     0.416666666667     0          
O        O      0.578866666667     0.688000000000     0.476633333333     0          
O        O      0.500000000000     0.648650000000     0.463533333333     0          
O        O      0.583333333333     0.641000000000     0.416666666667     0          
T        Si     0.606166666667     0.722400000000     0.462866666667     0          
T        Si     0.561333333333     0.650700000000     0.464233333333     0          
O        O      0.500000000000     0.716350000000     0.375266666667     0          
O        O      0.587800000000     0.688000000000     0.356700000000     0          
O        O      0.333333333333     0.648650000000     0.369800000000     0          
T        Si     0.560500000000     0.722400000000     0.370466666667     0          
T        Si     0.605333333333     0.650700000000     0.369100000000     0          
O        O      0.333333333333     0.783650000000     0.541933333333     0          
O        O      0.578866666667     0.812000000000     0.523366666667     0          
O        O      0.500000000000     0.851350000000     0.536466666667     0          
T        Si     0.606166666667     0.777600000000     0.537133333333     0          
T        Si     0.561333333333     0.849300000000     0.535766666667     0          
O        O      0.428766666667     0.750000000000     0.333333333333     0          
O        O      0.416666666667     0.734900000000     0.416666666667     0          
O        O      0.412200000000     0.688000000000     0.356700000000     0          
O        O      0.416666666667     0.641000000000     0.416666666667     0          
T        Si     0.439500000000     0.722400000000     0.370466666667     0          
T        Si     0.394666666667     0.650700000000     0.369100000000     0          
O        O      0.404566666667     0.750000000000     0.500000000000     0          
O        O      0.416666666667     0.765100000000     0.583333333333     0          
O        O      0.421133333333     0.812000000000     0.523366666667     0          
O        O      0.416666666667     0.859000000000     0.583333333333     0          
T        Si     0.393833333333     0.777600000000     0.537133333333     0          
T        Si     0.438666666667     0.849300000000     0.535766666667     0          
O        O      0.412200000000     0.812000000000     0.643300000000     0          
T        Si     0.439500000000     0.777600000000     0.629533333333     0          
T        Si     0.394666666667     0.849300000000     0.630900000000     0          
O        O      0.421133333333     0.688000000000     0.476633333333     0          
T        Si     0.393833333333     0.722400000000     0.462866666667     0          
T        Si     0.438666666667     0.650700000000     0.464233333333     0          
O        O      0.404566666667     0.500000000000     0.666666666667     0          
O        O      0.333333333333     0.533650000000     0.958066666667     0          
O        O      0.416666666667     0.515100000000     0.916666666667     0          
O        O      0.421133333333     0.562000000000     0.976633333333     0          
O        O      0.500000000000     0.601350000000     0.963533333333     0          
O        O      0.416666666667     0.609000000000     0.916666666667     0          
O        O      0.416666666667     0.625000000000     0.666666666667     0          
T        Si     0.393833333333     0.527600000000     0.962866666667     0          
T        Si     0.438666666667     0.599300000000     0.964233333333     0          
O        O      0.428766666667     0.500000000000     0.833333333333     0          
O        O      0.500000000000     0.966350000000     0.791400000000     0          
O        O      0.416666666667     0.984900000000     0.750000000000     0          
O        O      0.412200000000     0.938000000000     0.809966666667     0          
O        O      0.333333333333     0.898650000000     0.796866666667     0          
O        O      0.416666666667     0.891000000000     0.750000000000     0          
O        O      0.416666666667     0.875000000000     0.833333333333     0          
T        Si     0.439500000000     0.972400000000     0.796200000000     0          
T        Si     0.394666666667     0.900700000000     0.797566666667     0          
O        O      0.333333333333     0.966350000000     0.708600000000     0          
O        O      0.421133333333     0.938000000000     0.690033333333     0          
O        O      0.500000000000     0.898650000000     0.703133333333     0          
O        O      0.416666666667     0.875000000000     0.666666666667     0          
T        Si     0.393833333333     0.972400000000     0.703800000000     0          
T        Si     0.438666666667     0.900700000000     0.702433333333     0          
O        O      0.500000000000     0.533650000000     0.875266666667     0          
O        O      0.412200000000     0.562000000000     0.856700000000     0          
O        O      0.333333333333     0.601350000000     0.869800000000     0          
O        O      0.416666666667     0.625000000000     0.833333333333     0          
T        Si     0.439500000000     0.527600000000     0.870466666667     0          
T        Si     0.394666666667     0.599300000000     0.869100000000     0          
O        O      0.595433333333     0.500000000000     0.666666666667     0          
O        O      0.583333333333     0.984900000000     0.750000000000     0          
O        O      0.578866666667     0.938000000000     0.690033333333     0          
O        O      0.583333333333     0.891000000000     0.750000000000     0          
O        O      0.583333333333     0.875000000000     0.666666666667     0          
T        Si     0.606166666667     0.972400000000     0.703800000000     0          
T        Si     0.561333333333     0.900700000000     0.702433333333     0          
O        O      0.571233333333     0.500000000000     0.833333333333     0          
O        O      0.583333333333     0.515100000000     0.916666666667     0          
O        O      0.587800000000     0.562000000000     0.856700000000     0          
O        O      0.583333333333     0.609000000000     0.916666666667     0          
O        O      0.583333333333     0.625000000000     0.833333333333     0          
T        Si     0.560500000000     0.527600000000     0.870466666667     0          
T        Si     0.605333333333     0.599300000000     0.869100000000     0          
O        O      0.578866666667     0.562000000000     0.976633333333     0          
O        O      0.583333333333     0.625000000000     0.666666666667     0          
T        Si     0.606166666667     0.527600000000     0.962866666667     0          
T        Si     0.561333333333     0.599300000000     0.964233333333     0          
O        O      0.587800000000     0.938000000000     0.809966666667     0          
O        O      0.583333333333     0.875000000000     0.833333333333     0          
T        Si     0.560500000000     0.972400000000     0.796200000000     0          
T        Si     0.605333333333     0.900700000000     0.797566666667     0          
O        O      0.571233333333     0.750000000000     0.666666666667     0          
O        O      0.500000000000     0.783650000000     0.958066666667     0          
O        O      0.583333333333     0.765100000000     0.916666666667     0          
O        O      0.587800000000     0.812000000000     0.976633333333     0          
O        O      0.333333333333     0.851350000000     0.963533333333     0          
O        O      0.583333333333     0.859000000000     0.916666666667     0          
T        Si     0.560500000000     0.777600000000     0.962866666667     0          
T        Si     0.605333333333     0.849300000000     0.964233333333     0          
O        O      0.595433333333     0.750000000000     0.833333333333     0          
O        O      0.333333333333     0.716350000000     0.791400000000     0          
O        O      0.583333333333     0.734900000000     0.750000000000     0          
O        O      0.578866666667     0.688000000000     0.809966666667     0          
O        O      0.500000000000     0.648650000000     0.796866666667     0          
O        O      0.583333333333     0.641000000000     0.750000000000     0          
T        Si     0.606166666667     0.722400000000     0.796200000000     0          
T        Si     0.561333333333     0.650700000000     0.797566666667     0          
O        O      0.500000000000     0.716350000000     0.708600000000     0          
O        O      0.587800000000     0.688000000000     0.690033333333     0          
O        O      0.333333333333     0.648650000000     0.703133333333     0          
T        Si     0.560500000000     0.722400000000     0.703800000000     0          
T        Si     0.605333333333     0.650700000000     0.702433333333     0          
O        O      0.333333333333     0.783650000000     0.875266666667     0          
O        O      0.578866666667     0.812000000000     0.856700000000     0          
O        O      0.500000000000     0.851350000000     0.869800000000     0          
T        Si     0.606166666667     0.777600000000     0.870466666667     0          
T        Si     0.561333333333     0.849300000000     0.869100000000     0          
O        O      0.428766666667     0.750000000000     0.666666666667     0          
O        O      0.416666666667     0.734900000000     0.750000000000     0          
O        O      0.412200000000     0.688000000000     0.690033333333     0          
O        O      0.416666666667     0.641000000000     0.750000000000     0          
T        Si     0.439500000000     0.722400000000     0.703800000000     0          
T        Si     0.394666666667     0.650700000000     0.702433333333     0          
O        O      0.404566666667     0.750000000000     0.833333333333     0          
O        O      0.416666666667     0.765100000000     0.916666666667     0          
O        O      0.421133333333     0.812000000000     0.856700000000     0          
O        O      0.416666666667     0.859000000000     0.916666666667     0          
T        Si     0.393833333333     0.777600000000     0.870466666667     0          
T        Si     0.438666666667     0.849300000000     0.869100000000     0          
O        O      0.412200000000     0.812000000000     0.976633333333     0          
T        Si     0.439500000000     0.777600000000     0.962866666667     0          
T        Si     0.394666666667     0.849300000000     0.964233333333     0          
O        O      0.421133333333     0.688000000000     0.809966666667     0          
T        Si     0.393833333333     0.722400000000     0.796200000000     0          
T        Si     0.438666666667     0.650700000000     0.797566666667     0          
O        O      0.737900000000     0.000000000000     0.000000000000     0          
O        O      0.666666666667     0.033650000000     0.291400000000     0          
O        O      0.750000000000     0.015100000000     0.250000000000     0          
O        O      0.754466666667     0.062000000000     0.309966666667     0          
O        O      0.833333333333     0.101350000000     0.296866666667     0          
O        O      0.750000000000     0.109000000000     0.250000000000     0          
O        O      0.750000000000     0.125000000000     0.000000000000     0          
T        Si     0.727166666667     0.027600000000     0.296200000000     0          
T        Si     0.772000000000     0.099300000000     0.297566666667     0          
O        O      0.762100000000     0.000000000000     0.166666666667     0          
O        O      0.833333333333     0.466350000000     0.124733333333     0          
O        O      0.750000000000     0.484900000000     0.083333333333     0          
O        O      0.745533333333     0.438000000000     0.143300000000     0          
O        O      0.666666666667     0.398650000000     0.130200000000     0          
O        O      0.750000000000     0.391000000000     0.083333333333     0          
O        O      0.750000000000     0.375000000000     0.166666666667     0          
T        Si     0.772833333333     0.472400000000     0.129533333333     0          
T        Si     0.728000000000     0.400700000000     0.130900000000     0          
O        O      0.666666666667     0.466350000000     0.041933333333     0          
O        O      0.754466666667     0.438000000000     0.023366666667     0          
O        O      0.833333333333     0.398650000000     0.036466666667     0          
O        O      0.750000000000     0.375000000000     0.000000000000     0          
T        Si     0.727166666667     0.472400000000     0.037133333333     0          
T        Si     0.772000000000     0.400700000000     0.035766666667     0          
O        O      0.833333333333     0.033650000000     0.208600000000     0          
O        O      0.745533333333     0.062000000000     0.190033333333     0          
O        O      0.666666666667     0.101350000000     0.203133333333     0          
O        O      0.750000000000     0.125000000000     0.166666666667     0          
T        Si     0.772833333333     0.027600000000     0.203800000000     0          
T        Si     0.728000000000     0.099300000000     0.202433333333     0          
O        O      0.928766666667     0.000000000000     0.000000000000     0          
O        O      0.916666666667     0.484900000000     0.083333333333     0          
O        O      0.912200000000     0.438000000000     0.023366666667     0          
O        O      0.916666666667     0.391000000000     0.083333333333     0          
O        O      0.916666666667     0.375000000000     0.000000000000     0          
T        Si     0.939500000000     0.472400000000     0.037133333333     0          
T        Si     0.894666666667     0.400700000000     0.035766666667     0          
O        O      0.904566666667     0.000000000000     0.166666666667     0          
O        O      0.916666666667     0.015100000000     0.250000000000     0          
O        O      0.921133333333     0.062000000000     0.190033333333     0          
O        O      0.916666666667     0.109000000000     0.250000000000     0          
O        O      0.916666666667     0.125000000000     0.166666666667     0          
T        Si     0.893833333333     0.027600000000     0.203800000000     0          
T        Si     0.938666666667     0.099300000000     0.202433333333     0          
O        O      0.912200000000     0.062000000000     0.309966666667     0          
O        O      0.916666666667     0.125000000000     0.000000000000     0          
T        Si     0.939500000000     0.027600000000     0.296200000000     0          
T        Si     0.894666666667     0.099300000000     0.297566666667     0          
O        O      0.921133333333     0.438000000000     0.143300000000     0          
O        O      0.916666666667     0.375000000000     0.166666666667     0          
T        Si     0.893833333333     0.472400000000     0.129533333333     0          
T        Si     0.938666666667     0.400700000000     0.130900000000     0          
O        O      0.904566666667     0.250000000000     0.000000000000     0          
O        O      0.833333333333     0.283650000000     0.291400000000     0          
O        O      0.916666666667     0.265100000000     0.250000000000     0          
O        O      0.921133333333     0.312000000000     0.309966666667     0          
O        O      0.666666666667     0.351350000000     0.296866666667     0          
O        O      0.916666666667     0.359000000000     0.250000000000     0          
T        Si     0.893833333333     0.277600000000     0.296200000000     0          
T        Si     0.938666666667     0.349300000000     0.297566666667     0          
O        O      0.928766666667     0.250000000000     0.166666666667     0          
O        O      0.666666666667     0.216350000000     0.124733333333     0          
O        O      0.916666666667     0.234900000000     0.083333333333     0          
O        O      0.912200000000     0.188000000000     0.143300000000     0          
O        O      0.833333333333     0.148650000000     0.130200000000     0          
O        O      0.916666666667     0.141000000000     0.083333333333     0          
T        Si     0.939500000000     0.222400000000     0.129533333333     0          
T        Si     0.894666666667     0.150700000000     0.130900000000     0          
O        O      0.833333333333     0.216350000000     0.041933333333     0          
O        O      0.921133333333     0.188000000000     0.023366666667     0          
O        O      0.666666666667     0.148650000000     0.036466666667     0          
T        Si     0.893833333333     0.222400000000     0.037133333333     0          
T        Si     0.938666666667     0.150700000000     0.035766666667     0          
O        O      0.666666666667     0.283650000000     0.208600000000     0          
O        O      0.912200000000     0.312000000000     0.190033333333     0          
O        O      0.833333333333     0.351350000000     0.203133333333     0          
T        Si     0.939500000000     0.277600000000     0.203800000000     0          
T        Si     0.894666666667     0.349300000000     0.202433333333     0          
O        O      0.762100000000     0.250000000000     0.000000000000     0          
O        O      0.750000000000     0.234900000000     0.083333333333     0          
O        O      0.745533333333     0.188000000000     0.023366666667     0          
O        O      0.750000000000     0.141000000000     0.083333333333     0          
T        Si     0.772833333333     0.222400000000     0.037133333333     0          
T        Si     0.728000000000     0.150700000000     0.035766666667     0          
O        O      0.737900000000     0.250000000000     0.166666666667     0          
O        O      0.750000000000     0.265100000000     0.250000000000     0          
O        O      0.754466666667     0.312000000000     0.190033333333     0          
O        O      0.750000000000     0.359000000000     0.250000000000     0          
T        Si     0.727166666667     0.277600000000     0.203800000000     0          
T        Si     0.772000000000     0.349300000000     0.202433333333     0          
O        O      0.745533333333     0.312000000000     0.309966666667     0          
T        Si     0.772833333333     0.277600000000     0.296200000000     0          
T        Si     0.728000000000     0.349300000000     0.297566666667     0          
O        O      0.754466666667     0.188000000000     0.143300000000     0          
T        Si     0.727166666667     0.222400000000     0.129533333333     0          
T        Si     0.772000000000     0.150700000000     0.130900000000     0          
O        O      0.737900000000     0.000000000000     0.333333333333     0          
O        O      0.666666666667     0.033650000000     0.624733333333     0          
O        O      0.750000000000     0.015100000000     0.583333333333     0          
O        O      0.754466666667     0.062000000000     0.643300000000     0          
O        O      0.833333333333     0.101350000000     0.630200000000     0          
O        O      0.750000000000     0.109000000000     0.583333333333     0          
O        O      0.750000000000     0.125000000000     0.333333333333     0          
T        Si     0.727166666667     0.027600000000     0.629533333333     0          
T        Si     0.772000000000     0.099300000000     0.630900000000     0          
O        O      0.762100000000     0.000000000000     0.500000000000     0          
O        O      0.833333333333     0.466350000000     0.458066666667     0          
O        O      0.750000000000     0.484900000000     0.416666666667     0          
O        O      0.745533333333     0.438000000000     0.476633333333     0          
O        O      0.666666666667     0.398650000000     0.463533333333     0          
O        O      0.750000000000     0.391000000000     0.416666666667     0          
O        O      0.750000000000     0.375000000000     0.500000000000     0          
T        Si     0.772833333333     0.472400000000     0.462866666667     0          
T        Si     0.728000000000     0.400700000000     0.464233333333     0          
O        O      0.666666666667     0.466350000000     0.375266666667     0          
O        O      0.754466666667     0.438000000000     0.356700000000     0          
O        O      0.833333333333     0.398650000000     0.369800000000     0          
O        O      0.750000000000     0.375000000000     0.333333333333     0          
T        Si     0.727166666667     0.472400000000     0.370466666667     0          
T        Si     0.772000000000     0.400700000000     0.369100000000     0          
O        O      0.833333333333     0.033650000000     0.541933333333     0          
O        O      0.745533333333     0.062000000000     0.523366666667     0          
O        O      0.666666666667     0.101350000000     0.536466666667     0          
O        O      0.750000000000     0.125000000000     0.500000000000     0          
T        Si     0.772833333333     0.027600000000     0.537133333333     0          
T        Si     0.728000000000     0.099300000000     0.535766666667     0          
O        O      0.928766666667     0.000000000000     0.333333333333     0          
O        O      0.916666666667     0.484900000000     0.416666666667     0          
O        O      0.912200000000     0.438000000000     0.356700000000     0          
O        O      0.916666666667     0.391000000000     0.416666666667     0          
O        O      0.916666666667     0.375000000000     0.333333333333     0          
T        Si     0.939500000000     0.472400000000     0.370466666667     0          
T        Si     0.894666666667     0.400700000000     0.369100000000     0          
O        O      0.904566666667     0.000000000000     0.500000000000     0          
O        O      0.916666666667     0.015100000000     0.583333333333     0          
O        O      0.921133333333     0.062000000000     0.523366666667     0          
O        O      0.916666666667     0.109000000000     0.583333333333     0          
O        O      0.916666666667     0.125000000000     0.500000000000     0          
T        Si     0.893833333333     0.027600000000     0.537133333333     0          
T        Si     0.938666666667     0.099300000000     0.535766666667     0          
O        O      0.912200000000     0.062000000000     0.643300000000     0          
O        O      0.916666666667     0.125000000000     0.333333333333     0          
T        Si     0.939500000000     0.027600000000     0.629533333333     0          
T        Si     0.894666666667     0.099300000000     0.630900000000     0          
O        O      0.921133333333     0.438000000000     0.476633333333     0          
O        O      0.916666666667     0.375000000000     0.500000000000     0          
T        Si     0.893833333333     0.472400000000     0.462866666667     0          
T        Si     0.938666666667     0.400700000000     0.464233333333     0          
O        O      0.904566666667     0.250000000000     0.333333333333     0          
O        O      0.833333333333     0.283650000000     0.624733333333     0          
O        O      0.916666666667     0.265100000000     0.583333333333     0          
O        O      0.921133333333     0.312000000000     0.643300000000     0          
O        O      0.666666666667     0.351350000000     0.630200000000     0          
O        O      0.916666666667     0.359000000000     0.583333333333     0          
T        Si     0.893833333333     0.277600000000     0.629533333333     0          
T        Si     0.938666666667     0.349300000000     0.630900000000     0          
O        O      0.928766666667     0.250000000000     0.500000000000     0          
O        O      0.666666666667     0.216350000000     0.458066666667     0          
O        O      0.916666666667     0.234900000000     0.416666666667     0          
O        O      0.912200000000     0.188000000000     0.476633333333     0          
O        O      0.833333333333     0.148650000000     0.463533333333     0          
O        O      0.916666666667     0.141000000000     0.416666666667     0          
T        Si     0.939500000000     0.222400000000     0.462866666667     0          
T        Si     0.894666666667     0.150700000000     0.464233333333     0          
O        O      0.833333333333     0.216350000000     0.375266666667     0          
O        O      0.921133333333     0.188000000000     0.356700000000     0          
O        O      0.666666666667     0.148650000000     0.369800000000     0          
T        Si     0.893833333333     0.222400000000     0.370466666667     0          
T        Si     0.938666666667     0.150700000000     0.369100000000     0          
O        O      0.666666666667     0.283650000000     0.541933333333     0          
O        O      0.912200000000     0.312000000000     0.523366666667     0          
O        O      0.833333333333     0.351350000000     0.536466666667     0          
T        Si     0.939500000000     0.277600000000     0.537133333333     0          
T        Si     0.894666666667     0.349300000000     0.535766666667     0          
O        O      0.762100000000     0.250000000000     0.333333333333     0          
O        O      0.750000000000     0.234900000000     0.416666666667     0          
O        O      0.745533333333     0.188000000000     0.356700000000     0          
O        O      0.750000000000     0.141000000000     0.416666666667     0          
T        Si     0.772833333333     0.222400000000     0.370466666667     0          
T        Si     0.728000000000     0.150700000000     0.369100000000     0          
O        O      0.737900000000     0.250000000000     0.500000000000     0          
O        O      0.750000000000     0.265100000000     0.583333333333     0          
O        O      0.754466666667     0.312000000000     0.523366666667     0          
O        O      0.750000000000     0.359000000000     0.583333333333     0          
T        Si     0.727166666667     0.277600000000     0.537133333333     0          
T        Si     0.772000000000     0.349300000000     0.535766666667     0          
O        O      0.745533333333     0.312000000000     0.643300000000     0          
T        Si     0.772833333333     0.277600000000     0.629533333333     0          
T        Si     0.728000000000     0.349300000000     0.630900000000     0          
O        O      0.754466666667     0.188000000000     0.476633333333     0          
T        Si     0.727166666667     0.222400000000     0.462866666667     0          
T        Si     0.772000000000     0.150700000000     0.464233333333     0          
O        O      0.737900000000     0.000000000000     0.666666666667     0          
O        O      0.666666666667     0.033650000000     0.958066666667     0          
O        O      0.750000000000     0.015100000000     0.916666666667     0          
O        O      0.754466666667     0.062000000000     0.976633333333     0          
O        O      0.833333333333     0.101350000000     0.963533333333     0          
O        O      0.750000000000     0.109000000000     0.916666666667     0          
O        O      0.750000000000     0.125000000000     0.666666666667     0          
T        Si     0.727166666667     0.027600000000     0.962866666667     0          
T        Si     0.772000000000     0.099300000000     0.964233333333     0          
O        O      0.762100000000     0.000000000000     0.833333333333     0          
O        O      0.833333333333     0.466350000000     0.791400000000     0          
O        O      0.750000000000     0.484900000000     0.750000000000     0          
O        O      0.745533333333     0.438000000000     0.809966666667     0          
O        O      0.666666666667     0.398650000000     0.796866666667     0          
O        O      0.750000000000     0.391000000000     0.750000000000     0          
O        O      0.750000000000     0.375000000000     0.833333333333     0          
T        Si     0.772833333333     0.472400000000     0.796200000000     0          
T        Si     0.728000000000     0.400700000000     0.797566666667     0          
O        O      0.666666666667     0.466350000000     0.708600000000     0          
O        O      0.754466666667     0.438000000000     0.690033333333     0          
O        O      0.833333333333     0.398650000000     0.703133333333     0          
O        O      0.750000000000     0.375000000000     0.666666666667     0          
T        Si     0.727166666667     0.472400000000     0.703800000000     0          
T        Si     0.772000000000     0.400700000000     0.702433333333     0          
O        O      0.833333333333     0.033650000000     0.875266666667     0          
O        O      0.745533333333     0.062000000000     0.856700000000     0          
O        O      0.666666666667     0.101350000000     0.869800000000     0          
O        O      0.750000000000     0.125000000000     0.833333333333     0          
T        Si     0.772833333333     0.027600000000     0.870466666667     0          
T        Si     0.728000000000     0.099300000000     0.869100000000     0          
O        O      0.928766666667     0.000000000000     0.666666666667     0          
O        O      0.916666666667     0.484900000000     0.750000000000     0          
O        O      0.912200000000     0.438000000000     0.690033333333     0          
O        O      0.916666666667     0.391000000000     0.750000000000     0          
O        O      0.916666666667     0.375000000000     0.666666666667     0          
T        Si     0.939500000000     0.472400000000     0.703800000000     0          
T        Si     0.894666666667     0.400700000000     0.702433333333     0          
O        O      0.904566666667     0.000000000000     0.833333333333     0          
O        O      0.916666666667     0.015100000000     0.916666666667     0          
O        O      0.921133333333     0.062000000000     0.856700000000     0          
O        O      0.916666666667     0.109000000000     0.916666666667     0          
O        O      0.916666666667     0.125000000000     0.833333333333     0          
T        Si     0.893833333333     0.027600000000     0.870466666667     0          
T        Si     0.938666666667     0.099300000000     0.869100000000     0          
O        O      0.912200000000     0.062000000000     0.976633333333     0          
O        O      0.916666666667     0.125000000000     0.666666666667     0          
T        Si     0.939500000000     0.027600000000     0.962866666667     0          
T        Si     0.894666666667     0.099300000000     0.964233333333     0          
O        O      0.921133333333     0.438000000000     0.809966666667     0          
O        O      0.916666666667     0.375000000000     0.833333333333     0          
T        Si     0.893833333333     0.472400000000     0.796200000000     0          
T        Si     0.938666666667     0.400700000000     0.797566666667     0          
O        O      0.904566666667     0.250000000000     0.666666666667     0          
O        O      0.833333333333     0.283650000000     0.958066666667     0          
O        O      0.916666666667     0.265100000000     0.916666666667     0          
O        O      0.921133333333     0.312000000000     0.976633333333     0          
O        O      0.666666666667     0.351350000000     0.963533333333     0          
O        O      0.916666666667     0.359000000000     0.916666666667     0          
T        Si     0.893833333333     0.277600000000     0.962866666667     0          
T        Si     0.938666666667     0.349300000000     0.964233333333     0          
O        O      0.928766666667     0.250000000000     0.833333333333     0          
O        O      0.666666666667     0.216350000000     0.791400000000     0          
O        O      0.916666666667     0.234900000000     0.750000000000     0          
O        O      0.912200000000     0.188000000000     0.809966666667     0          
O        O      0.833333333333     0.148650000000     0.796866666667     0          
O        O      0.916666666667     0.141000000000     0.750000000000     0          
T        Si     0.939500000000     0.222400000000     0.796200000000     0          
T        Si     0.894666666667     0.150700000000     0.797566666667     0          
O        O      0.833333333333     0.216350000000     0.708600000000     0          
O        O      0.921133333333     0.188000000000     0.690033333333     0          
O        O      0.666666666667     0.148650000000     0.703133333333     0          
T        Si     0.893833333333     0.222400000000     0.703800000000     0          
T        Si     0.938666666667     0.150700000000     0.702433333333     0          
O        O      0.666666666667     0.283650000000     0.875266666667     0          
O        O      0.912200000000     0.312000000000     0.856700000000     0          
O        O      0.833333333333     0.351350000000     0.869800000000     0          
T        Si     0.939500000000     0.277600000000     0.870466666667     0          
T        Si     0.894666666667     0.349300000000     0.869100000000     0          
O        O      0.762100000000     0.250000000000     0.666666666667     0          
O        O      0.750000000000     0.234900000000     0.750000000000     0          
O        O      0.745533333333     0.188000000000     0.690033333333     0          
O        O      0.750000000000     0.141000000000     0.750000000000     0          
T        Si     0.772833333333     0.222400000000     0.703800000000     0          
T        Si     0.728000000000     0.150700000000     0.702433333333     0          
O        O      0.737900000000     0.250000000000     0.833333333333     0          
O        O      0.750000000000     0.265100000000     0.916666666667     0          
O        O      0.754466666667     0.312000000000     0.856700000000     0          
O        O      0.750000000000     0.359000000000     0.916666666667     0          
T        Si     0.727166666667     0.277600000000     0.870466666667     0          
T        Si     0.772000000000     0.349300000000     0.869100000000     0          
O        O      0.745533333333     0.312000000000     0.976633333333     0          
T        Si     0.772833333333     0.277600000000     0.962866666667     0          
T        Si     0.728000000000     0.349300000000     0.964233333333     0          
O        O      0.754466666667     0.188000000000     0.809966666667     0          
T        Si     0.727166666667     0.222400000000     0.796200000000     0          
T        Si     0.772000000000     0.150700000000     0.797566666667     0          
O        O      0.737900000000     0.500000000000     0.000000000000     0          
O        O      0.666666666667     0.533650000000     0.291400000000     0          
O        O      0.750000000000     0.515100000000     0.250000000000     0          
O        O      0.754466666667     0.562000000000     0.309966666667     0          
O        O      0.833333333333     0.601350000000     0.296866666667     0          
O        O      0.750000000000     0.609000000000     0.250000000000     0          
O        O      0.750000000000     0.625000000000     0.000000000000     0          
T        Si     0.727166666667     0.527600000000     0.296200000000     0          
T        Si     0.772000000000     0.599300000000     0.297566666667     0          
O        O      0.762100000000     0.500000000000     0.166666666667     0          
O        O      0.833333333333     0.966350000000     0.124733333333     0          
O        O      0.750000000000     0.984900000000     0.083333333333     0          
O        O      0.745533333333     0.938000000000     0.143300000000     0          
O        O      0.666666666667     0.898650000000     0.130200000000     0          
O        O      0.750000000000     0.891000000000     0.083333333333     0          
O        O      0.750000000000     0.875000000000     0.166666666667     0          
T        Si     0.772833333333     0.972400000000     0.129533333333     0          
T        Si     0.728000000000     0.900700000000     0.130900000000     0          
O        O      0.666666666667     0.966350000000     0.041933333333     0          
O        O      0.754466666667     0.938000000000     0.023366666667     0          
O        O      0.833333333333     0.898650000000     0.036466666667     0          
O        O      0.750000000000     0.875000000000     0.000000000000     0          
T        Si     0.727166666667     0.972400000000     0.037133333333     0          
T        Si     0.772000000000     0.900700000000     0.035766666667     0          
O        O      0.833333333333     0.533650000000     0.208600000000     0          
O        O      0.745533333333     0.562000000000     0.190033333333     0          
O        O      0.666666666667     0.601350000000     0.203133333333     0          
O        O      0.750000000000     0.625000000000     0.166666666667     0          
T        Si     0.772833333333     0.527600000000     0.203800000000     0          
T        Si     0.728000000000     0.599300000000     0.202433333333     0          
O        O      0.928766666667     0.500000000000     0.000000000000     0          
O        O      0.916666666667     0.984900000000     0.083333333333     0          
O        O      0.912200000000     0.938000000000     0.023366666667     0          
O        O      0.916666666667     0.891000000000     0.083333333333     0          
O        O      0.916666666667     0.875000000000     0.000000000000     0          
T        Si     0.939500000000     0.972400000000     0.037133333333     0          
T        Si     0.894666666667     0.900700000000     0.035766666667     0          
O        O      0.904566666667     0.500000000000     0.166666666667     0          
O        O      0.916666666667     0.515100000000     0.250000000000     0          
O        O      0.921133333333     0.562000000000     0.190033333333     0          
O        O      0.916666666667     0.609000000000     0.250000000000     0          
O        O      0.916666666667     0.625000000000     0.166666666667     0          
T        Si     0.893833333333     0.527600000000     0.203800000000     0          
T        Si     0.938666666667     0.599300000000     0.202433333333     0          
O        O      0.912200000000     0.562000000000     0.309966666667     0          
O        O      0.916666666667     0.625000000000     0.000000000000     0          
T        Si     0.939500000000     0.527600000000     0.296200000000     0          
T        Si     0.894666666667     0.599300000000     0.297566666667     0          
O        O      0.921133333333     0.938000000000     0.143300000000     0          
O        O      0.916666666667     0.875000000000     0.166666666667     0          
T        Si     0.893833333333     0.972400000000     0.129533333333     0          
T        Si     0.938666666667     0.900700000000     0.130900000000     0          
O        O      0.904566666667     0.750000000000     0.000000000000     0          
O        O      0.833333333333     0.783650000000     0.291400000000     0          
O        O      0.916666666667     0.765100000000     0.250000000000     0          
O        O      0.921133333333     0.812000000000     0.309966666667     0          
O        O      0.666666666667     0.851350000000     0.296866666667     0          
O        O      0.916666666667     0.859000000000     0.250000000000     0          
T        Si     0.893833333333     0.777600000000     0.296200000000     0          
T        Si     0.938666666667     0.849300000000     0.297566666667     0          
O        O      0.928766666667     0.750000000000     0.166666666667     0          
O        O      0.666666666667     0.716350000000     0.124733333333     0          
O        O      0.916666666667     0.734900000000     0.083333333333     0          
O        O      0.912200000000     0.688000000000     0.143300000000     0          
O        O      0.833333333333     0.648650000000     0.130200000000     0          
O        O      0.916666666667     0.641000000000     0.083333333333     0          
T        Si     0.939500000000     0.722400000000     0.129533333333     0          
T        Si     0.894666666667     0.650700000000     0.130900000000     0          
O        O      0.833333333333     0.716350000000     0.041933333333     0          
O        O      0.921133333333     0.688000000000     0.023366666667     0          
O        O      0.666666666667     0.648650000000     0.036466666667     0          
T        Si     0.893833333333     0.722400000000     0.037133333333     0          
T        Si     0.938666666667     0.650700000000     0.035766666667     0          
O        O      0.666666666667     0.783650000000     0.208600000000     0          
O        O      0.912200000000     0.812000000000     0.190033333333     0          
O        O      0.833333333333     0.851350000000     0.203133333333     0          
T        Si     0.939500000000     0.777600000000     0.203800000000     0          
T        Si     0.894666666667     0.849300000000     0.202433333333     0          
O        O      0.762100000000     0.750000000000     0.000000000000     0          
O        O      0.750000000000     0.734900000000     0.083333333333     0          
O        O      0.745533333333     0.688000000000     0.023366666667     0          
O        O      0.750000000000     0.641000000000     0.083333333333     0          
T        Si     0.772833333333     0.722400000000     0.037133333333     0          
T        Si     0.728000000000     0.650700000000     0.035766666667     0          
O        O      0.737900000000     0.750000000000     0.166666666667     0          
O        O      0.750000000000     0.765100000000     0.250000000000     0          
O        O      0.754466666667     0.812000000000     0.190033333333     0          
O        O      0.750000000000     0.859000000000     0.250000000000     0          
T        Si     0.727166666667     0.777600000000     0.203800000000     0          
T        Si     0.772000000000     0.849300000000     0.202433333333     0          
O        O      0.745533333333     0.812000000000     0.309966666667     0          
T        Si     0.772833333333     0.777600000000     0.296200000000     0          
T        Si     0.728000000000     0.849300000000     0.297566666667     0          
O        O      0.754466666667     0.688000000000     0.143300000000     0          
T        Si     0.727166666667     0.722400000000     0.129533333333     0          
T        Si     0.772000000000     0.650700000000     0.130900000000     0          
O        O      0.737900000000     0.500000000000     0.333333333333     0          
O        O      0.666666666667     0.533650000000     0.624733333333     0          
O        O      0.750000000000     0.515100000000     0.583333333333     0          
O        O      0.754466666667     0.562000000000     0.643300000000     0          
O        O      0.833333333333     0.601350000000     0.630200000000     0          
O        O      0.750000000000     0.609000000000     0.583333333333     0          
O        O      0.750000000000     0.625000000000     0.333333333333     0          
T        Si     0.727166666667     0.527600000000     0.629533333333     0          
T        Si     0.772000000000     0.599300000000     0.630900000000     0          
O        O      0.762100000000     0.500000000000     0.500000000000     0          
O        O      0.833333333333     0.966350000000     0.458066666667     0          
O        O      0.750000000000     0.984900000000     0.416666666667     0          
O        O      0.745533333333     0.938000000000     0.476633333333     0          
O        O      0.666666666667     0.898650000000     0.463533333333     0          
O        O      0.750000000000     0.891000000000     0.416666666667     0          
O        O      0.750000000000     0.875000000000     0.500000000000     0          
T        Si     0.772833333333     0.972400000000     0.462866666667     0          
T        Si     0.728000000000     0.900700000000     0.464233333333     0          
O        O      0.666666666667     0.966350000000     0.375266666667     0          
O        O      0.754466666667     0.938000000000     0.356700000000     0          
O        O      0.833333333333     0.898650000000     0.369800000000     0          
O        O      0.750000000000     0.875000000000     0.333333333333     0          
T        Si     0.727166666667     0.972400000000     0.370466666667     0          
T        Si     0.772000000000     0.900700000000     0.369100000000     0          
O        O      0.833333333333     0.533650000000     0.541933333333     0          
O        O      0.745533333333     0.562000000000     0.523366666667     0          
O        O      0.666666666667     0.601350000000     0.536466666667     0          
O        O      0.750000000000     0.625000000000     0.500000000000     0          
T        Si     0.772833333333     0.527600000000     0.537133333333     0          
T        Si     0.728000000000     0.599300000000     0.535766666667     0          
O        O      0.928766666667     0.500000000000     0.333333333333     0          
O        O      0.916666666667     0.984900000000     0.416666666667     0          
O        O      0.912200000000     0.938000000000     0.356700000000     0          
O        O      0.916666666667     0.891000000000     0.416666666667     0          
O        O      0.916666666667     0.875000000000     0.333333333333     0          
T        Si     0.939500000000     0.972400000000     0.370466666667     0          
T        Si     0.894666666667     0.900700000000     0.369100000000     0          
O        O      0.904566666667     0.500000000000     0.500000000000     0          
O        O      0.916666666667     0.515100000000     0.583333333333     0          
O        O      0.921133333333     0.562000000000     0.523366666667     0          
O        O      0.916666666667     0.609000000000     0.583333333333     0          
O        O      0.916666666667     0.625000000000     0.500000000000     0          
T        Si     0.893833333333     0.527600000000     0.537133333333     0          
T        Si     0.938666666667     0.599300000000     0.535766666667     0          
O        O      0.912200000000     0.562000000000     0.643300000000     0          
O        O      0.916666666667     0.625000000000     0.333333333333     0          
T        Si     0.939500000000     0.527600000000     0.629533333333     0          
T        Si     0.894666666667     0.599300000000     0.630900000000     0          
O        O      0.921133333333     0.938000000000     0.476633333333     0          
O        O      0.916666666667     0.875000000000     0.500000000000     0          
T        Si     0.893833333333     0.972400000000     0.462866666667     0          
T        Si     0.938666666667     0.900700000000     0.464233333333     0          
O        O      0.904566666667     0.750000000000     0.333333333333     0          
O        O      0.833333333333     0.783650000000     0.624733333333     0          
O        O      0.916666666667     0.765100000000     0.583333333333     0          
O        O      0.921133333333     0.812000000000     0.643300000000     0          
O        O      0.666666666667     0.851350000000     0.630200000000     0          
O        O      0.916666666667     0.859000000000     0.583333333333     0          
T        Si     0.893833333333     0.777600000000     0.629533333333     0          
T        Si     0.938666666667     0.849300000000     0.630900000000     0          
O        O      0.928766666667     0.750000000000     0.500000000000     0          
O        O      0.666666666667     0.716350000000     0.458066666667     0          
O        O      0.916666666667     0.734900000000     0.416666666667     0          
O        O      0.912200000000     0.688000000000     0.476633333333     0          
O        O      0.833333333333     0.648650000000     0.463533333333     0          
O        O      0.916666666667     0.641000000000     0.416666666667     0          
T        Si     0.939500000000     0.722400000000     0.462866666667     0          
T        Si     0.894666666667     0.650700000000     0.464233333333     0          
O        O      0.833333333333     0.716350000000     0.375266666667     0          
O        O      0.921133333333     0.688000000000     0.356700000000     0          
O        O      0.666666666667     0.648650000000     0.369800000000     0          
T        Si     0.893833333333     0.722400000000     0.370466666667     0          
T        Si     0.938666666667     0.650700000000     0.369100000000     0          
O        O      0.666666666667     0.783650000000     0.541933333333     0          
O        O      0.912200000000     0.812000000000     0.523366666667     0          
O        O      0.833333333333     0.851350000000     0.536466666667     0          
T        Si     0.939500000000     0.777600000000     0.537133333333     0          
T        Si     0.894666666667     0.849300000000     0.535766666667     0          
O        O      0.762100000000     0.750000000000     0.333333333333     0          
O        O      0.750000000000     0.734900000000     0.416666666667     0          
O        O      0.745533333333     0.688000000000     0.356700000000     0          
O        O      0.750000000000     0.641000000000     0.416666666667     0          
T        Si     0.772833333333     0.722400000000     0.370466666667     0          
T        Si     0.728000000000     0.650700000000     0.369100000000     0          
O        O      0.737900000000     0.750000000000     0.500000000000     0          
O        O      0.750000000000     0.765100000000     0.583333333333     0          
O        O      0.754466666667     0.812000000000     0.523366666667     0          
O        O      0.750000000000     0.859000000000     0.583333333333     0          
T        Si     0.727166666667     0.777600000000     0.537133333333     0          
T        Si     0.772000000000     0.849300000000     0.535766666667     0          
O        O      0.745533333333     0.812000000000     0.643300000000     0          
T        Si     0.772833333333     0.777600000000     0.629533333333     0          
T        Si     0.728000000000     0.849300000000     0.630900000000     0          
O        O      0.754466666667     0.688000000000     0.476633333333     0          
T        Si     0.727166666667     0.722400000000     0.462866666667     0          
T        Si     0.772000000000     0.650700000000     0.464233333333     0          
O        O      0.737900000000     0.500000000000     0.666666666667     0          
O        O      0.666666666667     0.533650000000     0.958066666667     0          
O        O      0.750000000000     0.515100000000     0.916666666667     0          
O        O      0.754466666667     0.562000000000     0.976633333333     0          
O        O      0.833333333333     0.601350000000     0.963533333333     0          
O        O      0.750000000000     0.609000000000     0.916666666667     0          
O        O      0.750000000000     0.625000000000     0.666666666667     0          
T        Si     0.727166666667     0.527600000000     0.962866666667     0          
T        Si     0.772000000000     0.599300000000     0.964233333333     0          
O        O      0.762100000000     0.500000000000     0.833333333333     0          
O        O      0.833333333333     0.966350000000     0.791400000000     0          
O        O      0.750000000000     0.984900000000     0.750000000000     0          
O        O      0.745533333333     0.938000000000     0.809966666667     0          
O        O      0.666666666667     0.898650000000     0.796866666667     0          
O        O      0.750000000000     0.891000000000     0.750000000000     0          
O        O      0.750000000000     0.875000000000     0.833333333333     0          
T        Si     0.772833333333     0.972400000000     0.796200000000     0          
T        Si     0.728000000000     0.900700000000     0.797566666667     0          
O        O      0.666666666667     0.966350000000     0.708600000000     0          
O        O      0.754466666667     0.938000000000     0.690033333333     0          
O        O      0.833333333333     0.898650000000     0.703133333333     0          
O        O      0.750000000000     0.875000000000     0.666666666667     0          
T        Si     0.727166666667     0.972400000000     0.703800000000     0          
T        Si     0.772000000000     0.900700000000     0.702433333333     0          
O        O      0.833333333333     0.533650000000     0.875266666667     0          
O        O      0.745533333333     0.562000000000     0.856700000000     0          
O        O      0.666666666667     0.601350000000     0.869800000000     0          
O        O      0.750000000000     0.625000000000     0.833333333333     0          
T        Si     0.772833333333     0.527600000000     0.870466666667     0          
T        Si     0.728000000000     0.599300000000     0.869100000000     0          
O        O      0.928766666667     0.500000000000     0.666666666667     0          
O        O      0.916666666667     0.984900000000     0.750000000000     0          
O        O      0.912200000000     0.938000000000     0.690033333333     0          
O        O      0.916666666667     0.891000000000     0.750000000000     0          
O        O      0.916666666667     0.875000000000     0.666666666667     0          
T        Si     0.939500000000     0.972400000000     0.703800000000     0          
T        Si     0.894666666667     0.900700000000     0.702433333333     0          
O        O      0.904566666667     0.500000000000     0.833333333333     0          
O        O      0.916666666667     0.515100000000     0.916666666667     0          
O        O      0.921133333333     0.562000000000     0.856700000000     0          
O        O      0.916666666667     0.609000000000     0.916666666667     0          
O        O      0.916666666667     0.625000000000     0.833333333333     0          
T        Si     0.893833333333     0.527600000000     0.870466666667     0          
T        Si     0.938666666667     0.599300000000     0.869100000000     0          
O        O      0.912200000000     0.562000000000     0.976633333333     0          
O        O      0.916666666667     0.625000000000     0.666666666667     0          
T        Si     0.939500000000     0.527600000000     0.962866666667     0          
T        Si     0.894666666667     0.599300000000     0.964233333333     0          
O        O      0.921133333333     0.938000000000     0.809966666667     0          
O        O      0.916666666667     0.875000000000     0.833333333333     0          
T        Si     0.893833333333     0.972400000000     0.796200000000     0          
T        Si     0.938666666667     0.900700000000     0.797566666667     0          
O        O      0.904566666667     0.750000000000     0.666666666667     0          
O        O      0.833333333333     0.783650000000     0.958066666667     0          
O        O      0.916666666667     0.765100000000     0.916666666667     0          
O        O      0.921133333333     0.812000000000     0.976633333333     0          
O        O      0.666666666667     0.851350000000     0.963533333333     0          
O        O      0.916666666667     0.859000000000     0.916666666667     0          
T        Si     0.893833333333     0.777600000000     0.962866666667     0          
T        Si     0.938666666667     0.849300000000     0.964233333333     0          
O        O      0.928766666667     0.750000000000     0.833333333333     0          
O        O      0.666666666667     0.716350000000     0.791400000000     0          
O        O      0.916666666667     0.734900000000     0.750000000000     0          
O        O      0.912200000000     0.688000000000     0.809966666667     0          
O        O      0.833333333333     0.648650000000     0.796866666667     0          
O        O      0.916666666667     0.641000000000     0.750000000000     0          
T        Si     0.939500000000     0.722400000000     0.796200000000     0          
T        Si     0.894666666667     0.650700000000     0.797566666667     0          
O        O      0.833333333333     0.716350000000     0.708600000000     0          
O        O      0.921133333333     0.688000000000     0.690033333333     0          
O        O      0.666666666667     0.648650000000     0.703133333333     0          
T        Si     0.893833333333     0.722400000000     0.703800000000     0          
T        Si     0.938666666667     0.650700000000     0.702433333333     0          
O        O      0.666666666667     0.783650000000     0.875266666667     0          
O        O      0.912200000000     0.812000000000     0.856700000000     0          
O        O      0.833333333333     0.851350000000     0.869800000000     0          
T        Si     0.939500000000     0.777600000000     0.870466666667     0          
T        Si     0.894666666667     0.849300000000     0.869100000000     0          
O        O      0.762100000000     0.750000000000     0.666666666667     0          
O        O      0.750000000000     0.734900000000     0.750000000000     0          
O        O      0.745533333333     0.688000000000     0.690033333333     0          
O        O      0.750000000000     0.641000000000     0.750000000000     0          
T        Si     0.772833333333     0.722400000000     0.703800000000     0          
T        Si     0.728000000000     0.650700000000     0.702433333333     0          
O        O      0.737900000000     0.750000000000     0.833333333333     0          
O        O      0.750000000000     0.765100000000     0.916666666667     0          
O        O      0.754466666667     0.812000000000     0.856700000000     0          
O        O      0.750000000000     0.859000000000     0.916666666667     0          
T        Si     0.727166666667     0.777600000000     0.870466666667     0          
T        Si     0.772000000000     0.849300000000     0.869100000000     0          
O        O      0.745533333333     0.812000000000     0.976633333333     0          
T        Si     0.772833333333     0.777600000000     0.962866666667     0          
T        Si     0.728000000000     0.849300000000     0.964233333333     0          
O        O      0.754466666667     0.688000000000     0.809966666667     0          
T        Si     0.727166666667     0.722400000000     0.796200000000     0          
T        Si     0.772000000000     0.650700000000     0.797566666667     0          


