data_zeolite

_audit_creation_method RASPA-1.0
_audit_creation_date 2021-6-7
_audit_author_name ''

_cell_length_a    31.167
_cell_length_b    31.167
_cell_length_c    7.601
_cell_angle_alpha 90
_cell_angle_beta  90
_cell_angle_gamma 120
_cell_volume      25577.1

_symmetry_cell_setting          hexagonal
_symmetry_space_group_name_Hall 'P 1'
_symmetry_space_group_name_H-M  'P 1'
_symmetry_Int_Tables_number     1

_symmetry_equiv_pos_as_xyz 'x,y,z'

loop_
_atom_site_label
_atom_site_type_symbol
_atom_site_fract_x
_atom_site_fract_y
_atom_site_fract_z
_atom_site_charge
T        Si     0.055000000000     0.429000000000     0.112975000000     0          
T        Si     0.152000000000     0.526700000000     0.113125000000     0          
T        Si     0.054700000000     0.207000000000     0.113075000000     0          
T        Si     0.192800000000     0.487300000000     0.187500000000     0          
T        Si     0.095300000000     0.389400000000     0.187500000000     0          
T        Si     0.094000000000     0.286500000000     0.187500000000     0          
T        Si     0.626000000000     0.055000000000     0.237975000000     0          
T        Si     0.625300000000     0.152000000000     0.238125000000     0          
T        Si     0.847700000000     0.054700000000     0.238075000000     0          
T        Si     0.705500000000     0.192800000000     0.062500000000     0          
T        Si     0.705900000000     0.095300000000     0.062500000000     0          
T        Si     0.807500000000     0.094000000000     0.062500000000     0          
T        Si     0.571000000000     0.626000000000     0.112975000000     0          
T        Si     0.473300000000     0.625300000000     0.113125000000     0          
T        Si     0.793000000000     0.847700000000     0.113075000000     0          
T        Si     0.512700000000     0.705500000000     0.187500000000     0          
T        Si     0.610600000000     0.705900000000     0.187500000000     0          
T        Si     0.713500000000     0.807500000000     0.187500000000     0          
T        Si     0.945000000000     0.571000000000     0.237975000000     0          
T        Si     0.848000000000     0.473300000000     0.238125000000     0          
T        Si     0.945300000000     0.793000000000     0.238075000000     0          
T        Si     0.807200000000     0.512700000000     0.062500000000     0          
T        Si     0.904700000000     0.610600000000     0.062500000000     0          
T        Si     0.906000000000     0.713500000000     0.062500000000     0          
T        Si     0.374000000000     0.945000000000     0.112975000000     0          
T        Si     0.374700000000     0.848000000000     0.113125000000     0          
T        Si     0.152300000000     0.945300000000     0.113075000000     0          
T        Si     0.294500000000     0.807200000000     0.187500000000     0          
T        Si     0.294100000000     0.904700000000     0.187500000000     0          
T        Si     0.192500000000     0.906000000000     0.187500000000     0          
T        Si     0.429000000000     0.374000000000     0.237975000000     0          
T        Si     0.526700000000     0.374700000000     0.238125000000     0          
T        Si     0.207000000000     0.152300000000     0.238075000000     0          
T        Si     0.487300000000     0.294500000000     0.062500000000     0          
T        Si     0.389400000000     0.294100000000     0.062500000000     0          
T        Si     0.286500000000     0.192500000000     0.062500000000     0          
T        Si     0.571000000000     0.945000000000     0.012025000000     0          
T        Si     0.473300000000     0.848000000000     0.011875000000     0          
T        Si     0.793000000000     0.945300000000     0.011925000000     0          
T        Si     0.512700000000     0.807200000000     0.187500000000     0          
T        Si     0.610600000000     0.904700000000     0.187500000000     0          
T        Si     0.713500000000     0.906000000000     0.187500000000     0          
T        Si     0.626000000000     0.571000000000     0.137025000000     0          
T        Si     0.625300000000     0.473300000000     0.136875000000     0          
T        Si     0.847700000000     0.793000000000     0.136925000000     0          
T        Si     0.705500000000     0.512700000000     0.062500000000     0          
T        Si     0.705900000000     0.610600000000     0.062500000000     0          
T        Si     0.807500000000     0.713500000000     0.062500000000     0          
T        Si     0.055000000000     0.626000000000     0.012025000000     0          
T        Si     0.152000000000     0.625300000000     0.011875000000     0          
T        Si     0.054700000000     0.847700000000     0.011925000000     0          
T        Si     0.192800000000     0.705500000000     0.187500000000     0          
T        Si     0.095300000000     0.705900000000     0.187500000000     0          
T        Si     0.094000000000     0.807500000000     0.187500000000     0          
T        Si     0.429000000000     0.055000000000     0.137025000000     0          
T        Si     0.526700000000     0.152000000000     0.136875000000     0          
T        Si     0.207000000000     0.054700000000     0.136925000000     0          
T        Si     0.487300000000     0.192800000000     0.062500000000     0          
T        Si     0.389400000000     0.095300000000     0.062500000000     0          
T        Si     0.286500000000     0.094000000000     0.062500000000     0          
T        Si     0.374000000000     0.429000000000     0.012025000000     0          
T        Si     0.374700000000     0.526700000000     0.011875000000     0          
T        Si     0.152300000000     0.207000000000     0.011925000000     0          
T        Si     0.294500000000     0.487300000000     0.187500000000     0          
T        Si     0.294100000000     0.389400000000     0.187500000000     0          
T        Si     0.192500000000     0.286500000000     0.187500000000     0          
T        Si     0.945000000000     0.374000000000     0.137025000000     0          
T        Si     0.848000000000     0.374700000000     0.136875000000     0          
T        Si     0.945300000000     0.152300000000     0.136925000000     0          
T        Si     0.807200000000     0.294500000000     0.062500000000     0          
T        Si     0.904700000000     0.294100000000     0.062500000000     0          
T        Si     0.906000000000     0.192500000000     0.062500000000     0          
T        Si     0.945000000000     0.571000000000     0.137025000000     0          
T        Si     0.848000000000     0.473300000000     0.136875000000     0          
T        Si     0.945300000000     0.793000000000     0.136925000000     0          
T        Si     0.374000000000     0.945000000000     0.012025000000     0          
T        Si     0.374700000000     0.848000000000     0.011875000000     0          
T        Si     0.152300000000     0.945300000000     0.011925000000     0          
T        Si     0.429000000000     0.374000000000     0.137025000000     0          
T        Si     0.526700000000     0.374700000000     0.136875000000     0          
T        Si     0.207000000000     0.152300000000     0.136925000000     0          
T        Si     0.055000000000     0.429000000000     0.012025000000     0          
T        Si     0.152000000000     0.526700000000     0.011875000000     0          
T        Si     0.054700000000     0.207000000000     0.011925000000     0          
T        Si     0.626000000000     0.055000000000     0.137025000000     0          
T        Si     0.625300000000     0.152000000000     0.136875000000     0          
T        Si     0.847700000000     0.054700000000     0.136925000000     0          
T        Si     0.571000000000     0.626000000000     0.012025000000     0          
T        Si     0.473300000000     0.625300000000     0.011875000000     0          
T        Si     0.793000000000     0.847700000000     0.011925000000     0          
T        Si     0.429000000000     0.055000000000     0.237975000000     0          
T        Si     0.526700000000     0.152000000000     0.238125000000     0          
T        Si     0.207000000000     0.054700000000     0.238075000000     0          
T        Si     0.374000000000     0.429000000000     0.112975000000     0          
T        Si     0.374700000000     0.526700000000     0.113125000000     0          
T        Si     0.152300000000     0.207000000000     0.113075000000     0          
T        Si     0.945000000000     0.374000000000     0.237975000000     0          
T        Si     0.848000000000     0.374700000000     0.238125000000     0          
T        Si     0.945300000000     0.152300000000     0.238075000000     0          
T        Si     0.571000000000     0.945000000000     0.112975000000     0          
T        Si     0.473300000000     0.848000000000     0.113125000000     0          
T        Si     0.793000000000     0.945300000000     0.113075000000     0          
T        Si     0.626000000000     0.571000000000     0.237975000000     0          
T        Si     0.625300000000     0.473300000000     0.238125000000     0          
T        Si     0.847700000000     0.793000000000     0.238075000000     0          
T        Si     0.055000000000     0.626000000000     0.112975000000     0          
T        Si     0.152000000000     0.625300000000     0.113125000000     0          
T        Si     0.054700000000     0.847700000000     0.113075000000     0          
T        Si     0.055000000000     0.429000000000     0.362975000000     0          
T        Si     0.152000000000     0.526700000000     0.363125000000     0          
T        Si     0.054700000000     0.207000000000     0.363075000000     0          
T        Si     0.192800000000     0.487300000000     0.437500000000     0          
T        Si     0.095300000000     0.389400000000     0.437500000000     0          
T        Si     0.094000000000     0.286500000000     0.437500000000     0          
T        Si     0.626000000000     0.055000000000     0.487975000000     0          
T        Si     0.625300000000     0.152000000000     0.488125000000     0          
T        Si     0.847700000000     0.054700000000     0.488075000000     0          
T        Si     0.705500000000     0.192800000000     0.312500000000     0          
T        Si     0.705900000000     0.095300000000     0.312500000000     0          
T        Si     0.807500000000     0.094000000000     0.312500000000     0          
T        Si     0.571000000000     0.626000000000     0.362975000000     0          
T        Si     0.473300000000     0.625300000000     0.363125000000     0          
T        Si     0.793000000000     0.847700000000     0.363075000000     0          
T        Si     0.512700000000     0.705500000000     0.437500000000     0          
T        Si     0.610600000000     0.705900000000     0.437500000000     0          
T        Si     0.713500000000     0.807500000000     0.437500000000     0          
T        Si     0.945000000000     0.571000000000     0.487975000000     0          
T        Si     0.848000000000     0.473300000000     0.488125000000     0          
T        Si     0.945300000000     0.793000000000     0.488075000000     0          
T        Si     0.807200000000     0.512700000000     0.312500000000     0          
T        Si     0.904700000000     0.610600000000     0.312500000000     0          
T        Si     0.906000000000     0.713500000000     0.312500000000     0          
T        Si     0.374000000000     0.945000000000     0.362975000000     0          
T        Si     0.374700000000     0.848000000000     0.363125000000     0          
T        Si     0.152300000000     0.945300000000     0.363075000000     0          
T        Si     0.294500000000     0.807200000000     0.437500000000     0          
T        Si     0.294100000000     0.904700000000     0.437500000000     0          
T        Si     0.192500000000     0.906000000000     0.437500000000     0          
T        Si     0.429000000000     0.374000000000     0.487975000000     0          
T        Si     0.526700000000     0.374700000000     0.488125000000     0          
T        Si     0.207000000000     0.152300000000     0.488075000000     0          
T        Si     0.487300000000     0.294500000000     0.312500000000     0          
T        Si     0.389400000000     0.294100000000     0.312500000000     0          
T        Si     0.286500000000     0.192500000000     0.312500000000     0          
T        Si     0.571000000000     0.945000000000     0.262025000000     0          
T        Si     0.473300000000     0.848000000000     0.261875000000     0          
T        Si     0.793000000000     0.945300000000     0.261925000000     0          
T        Si     0.512700000000     0.807200000000     0.437500000000     0          
T        Si     0.610600000000     0.904700000000     0.437500000000     0          
T        Si     0.713500000000     0.906000000000     0.437500000000     0          
T        Si     0.626000000000     0.571000000000     0.387025000000     0          
T        Si     0.625300000000     0.473300000000     0.386875000000     0          
T        Si     0.847700000000     0.793000000000     0.386925000000     0          
T        Si     0.705500000000     0.512700000000     0.312500000000     0          
T        Si     0.705900000000     0.610600000000     0.312500000000     0          
T        Si     0.807500000000     0.713500000000     0.312500000000     0          
T        Si     0.055000000000     0.626000000000     0.262025000000     0          
T        Si     0.152000000000     0.625300000000     0.261875000000     0          
T        Si     0.054700000000     0.847700000000     0.261925000000     0          
T        Si     0.192800000000     0.705500000000     0.437500000000     0          
T        Si     0.095300000000     0.705900000000     0.437500000000     0          
T        Si     0.094000000000     0.807500000000     0.437500000000     0          
T        Si     0.429000000000     0.055000000000     0.387025000000     0          
T        Si     0.526700000000     0.152000000000     0.386875000000     0          
T        Si     0.207000000000     0.054700000000     0.386925000000     0          
T        Si     0.487300000000     0.192800000000     0.312500000000     0          
T        Si     0.389400000000     0.095300000000     0.312500000000     0          
T        Si     0.286500000000     0.094000000000     0.312500000000     0          
T        Si     0.374000000000     0.429000000000     0.262025000000     0          
T        Si     0.374700000000     0.526700000000     0.261875000000     0          
T        Si     0.152300000000     0.207000000000     0.261925000000     0          
T        Si     0.294500000000     0.487300000000     0.437500000000     0          
T        Si     0.294100000000     0.389400000000     0.437500000000     0          
T        Si     0.192500000000     0.286500000000     0.437500000000     0          
T        Si     0.945000000000     0.374000000000     0.387025000000     0          
T        Si     0.848000000000     0.374700000000     0.386875000000     0          
T        Si     0.945300000000     0.152300000000     0.386925000000     0          
T        Si     0.807200000000     0.294500000000     0.312500000000     0          
T        Si     0.904700000000     0.294100000000     0.312500000000     0          
T        Si     0.906000000000     0.192500000000     0.312500000000     0          
T        Si     0.945000000000     0.571000000000     0.387025000000     0          
T        Si     0.848000000000     0.473300000000     0.386875000000     0          
T        Si     0.945300000000     0.793000000000     0.386925000000     0          
T        Si     0.374000000000     0.945000000000     0.262025000000     0          
T        Si     0.374700000000     0.848000000000     0.261875000000     0          
T        Si     0.152300000000     0.945300000000     0.261925000000     0          
T        Si     0.429000000000     0.374000000000     0.387025000000     0          
T        Si     0.526700000000     0.374700000000     0.386875000000     0          
T        Si     0.207000000000     0.152300000000     0.386925000000     0          
T        Si     0.055000000000     0.429000000000     0.262025000000     0          
T        Si     0.152000000000     0.526700000000     0.261875000000     0          
T        Si     0.054700000000     0.207000000000     0.261925000000     0          
T        Si     0.626000000000     0.055000000000     0.387025000000     0          
T        Si     0.625300000000     0.152000000000     0.386875000000     0          
T        Si     0.847700000000     0.054700000000     0.386925000000     0          
T        Si     0.571000000000     0.626000000000     0.262025000000     0          
T        Si     0.473300000000     0.625300000000     0.261875000000     0          
T        Si     0.793000000000     0.847700000000     0.261925000000     0          
T        Si     0.429000000000     0.055000000000     0.487975000000     0          
T        Si     0.526700000000     0.152000000000     0.488125000000     0          
T        Si     0.207000000000     0.054700000000     0.488075000000     0          
T        Si     0.374000000000     0.429000000000     0.362975000000     0          
T        Si     0.374700000000     0.526700000000     0.363125000000     0          
T        Si     0.152300000000     0.207000000000     0.363075000000     0          
T        Si     0.945000000000     0.374000000000     0.487975000000     0          
T        Si     0.848000000000     0.374700000000     0.488125000000     0          
T        Si     0.945300000000     0.152300000000     0.488075000000     0          
T        Si     0.571000000000     0.945000000000     0.362975000000     0          
T        Si     0.473300000000     0.848000000000     0.363125000000     0          
T        Si     0.793000000000     0.945300000000     0.363075000000     0          
T        Si     0.626000000000     0.571000000000     0.487975000000     0          
T        Si     0.625300000000     0.473300000000     0.488125000000     0          
T        Si     0.847700000000     0.793000000000     0.488075000000     0          
T        Si     0.055000000000     0.626000000000     0.362975000000     0          
T        Si     0.152000000000     0.625300000000     0.363125000000     0          
T        Si     0.054700000000     0.847700000000     0.363075000000     0          
T        Si     0.055000000000     0.429000000000     0.612975000000     0          
T        Si     0.152000000000     0.526700000000     0.613125000000     0          
T        Si     0.054700000000     0.207000000000     0.613075000000     0          
T        Si     0.192800000000     0.487300000000     0.687500000000     0          
T        Si     0.095300000000     0.389400000000     0.687500000000     0          
T        Si     0.094000000000     0.286500000000     0.687500000000     0          
T        Si     0.626000000000     0.055000000000     0.737975000000     0          
T        Si     0.625300000000     0.152000000000     0.738125000000     0          
T        Si     0.847700000000     0.054700000000     0.738075000000     0          
T        Si     0.705500000000     0.192800000000     0.562500000000     0          
T        Si     0.705900000000     0.095300000000     0.562500000000     0          
T        Si     0.807500000000     0.094000000000     0.562500000000     0          
T        Si     0.571000000000     0.626000000000     0.612975000000     0          
T        Si     0.473300000000     0.625300000000     0.613125000000     0          
T        Si     0.793000000000     0.847700000000     0.613075000000     0          
T        Si     0.512700000000     0.705500000000     0.687500000000     0          
T        Si     0.610600000000     0.705900000000     0.687500000000     0          
T        Si     0.713500000000     0.807500000000     0.687500000000     0          
T        Si     0.945000000000     0.571000000000     0.737975000000     0          
T        Si     0.848000000000     0.473300000000     0.738125000000     0          
T        Si     0.945300000000     0.793000000000     0.738075000000     0          
T        Si     0.807200000000     0.512700000000     0.562500000000     0          
T        Si     0.904700000000     0.610600000000     0.562500000000     0          
T        Si     0.906000000000     0.713500000000     0.562500000000     0          
T        Si     0.374000000000     0.945000000000     0.612975000000     0          
T        Si     0.374700000000     0.848000000000     0.613125000000     0          
T        Si     0.152300000000     0.945300000000     0.613075000000     0          
T        Si     0.294500000000     0.807200000000     0.687500000000     0          
T        Si     0.294100000000     0.904700000000     0.687500000000     0          
T        Si     0.192500000000     0.906000000000     0.687500000000     0          
T        Si     0.429000000000     0.374000000000     0.737975000000     0          
T        Si     0.526700000000     0.374700000000     0.738125000000     0          
T        Si     0.207000000000     0.152300000000     0.738075000000     0          
T        Si     0.487300000000     0.294500000000     0.562500000000     0          
T        Si     0.389400000000     0.294100000000     0.562500000000     0          
T        Si     0.286500000000     0.192500000000     0.562500000000     0          
T        Si     0.571000000000     0.945000000000     0.512025000000     0          
T        Si     0.473300000000     0.848000000000     0.511875000000     0          
T        Si     0.793000000000     0.945300000000     0.511925000000     0          
T        Si     0.512700000000     0.807200000000     0.687500000000     0          
T        Si     0.610600000000     0.904700000000     0.687500000000     0          
T        Si     0.713500000000     0.906000000000     0.687500000000     0          
T        Si     0.626000000000     0.571000000000     0.637025000000     0          
T        Si     0.625300000000     0.473300000000     0.636875000000     0          
T        Si     0.847700000000     0.793000000000     0.636925000000     0          
T        Si     0.705500000000     0.512700000000     0.562500000000     0          
T        Si     0.705900000000     0.610600000000     0.562500000000     0          
T        Si     0.807500000000     0.713500000000     0.562500000000     0          
T        Si     0.055000000000     0.626000000000     0.512025000000     0          
T        Si     0.152000000000     0.625300000000     0.511875000000     0          
T        Si     0.054700000000     0.847700000000     0.511925000000     0          
T        Si     0.192800000000     0.705500000000     0.687500000000     0          
T        Si     0.095300000000     0.705900000000     0.687500000000     0          
T        Si     0.094000000000     0.807500000000     0.687500000000     0          
T        Si     0.429000000000     0.055000000000     0.637025000000     0          
T        Si     0.526700000000     0.152000000000     0.636875000000     0          
T        Si     0.207000000000     0.054700000000     0.636925000000     0          
T        Si     0.487300000000     0.192800000000     0.562500000000     0          
T        Si     0.389400000000     0.095300000000     0.562500000000     0          
T        Si     0.286500000000     0.094000000000     0.562500000000     0          
T        Si     0.374000000000     0.429000000000     0.512025000000     0          
T        Si     0.374700000000     0.526700000000     0.511875000000     0          
T        Si     0.152300000000     0.207000000000     0.511925000000     0          
T        Si     0.294500000000     0.487300000000     0.687500000000     0          
T        Si     0.294100000000     0.389400000000     0.687500000000     0          
T        Si     0.192500000000     0.286500000000     0.687500000000     0          
T        Si     0.945000000000     0.374000000000     0.637025000000     0          
T        Si     0.848000000000     0.374700000000     0.636875000000     0          
T        Si     0.945300000000     0.152300000000     0.636925000000     0          
T        Si     0.807200000000     0.294500000000     0.562500000000     0          
T        Si     0.904700000000     0.294100000000     0.562500000000     0          
T        Si     0.906000000000     0.192500000000     0.562500000000     0          
T        Si     0.945000000000     0.571000000000     0.637025000000     0          
T        Si     0.848000000000     0.473300000000     0.636875000000     0          
T        Si     0.945300000000     0.793000000000     0.636925000000     0          
T        Si     0.374000000000     0.945000000000     0.512025000000     0          
T        Si     0.374700000000     0.848000000000     0.511875000000     0          
T        Si     0.152300000000     0.945300000000     0.511925000000     0          
T        Si     0.429000000000     0.374000000000     0.637025000000     0          
T        Si     0.526700000000     0.374700000000     0.636875000000     0          
T        Si     0.207000000000     0.152300000000     0.636925000000     0          
T        Si     0.055000000000     0.429000000000     0.512025000000     0          
T        Si     0.152000000000     0.526700000000     0.511875000000     0          
T        Si     0.054700000000     0.207000000000     0.511925000000     0          
T        Si     0.626000000000     0.055000000000     0.637025000000     0          
T        Si     0.625300000000     0.152000000000     0.636875000000     0          
T        Si     0.847700000000     0.054700000000     0.636925000000     0          
T        Si     0.571000000000     0.626000000000     0.512025000000     0          
T        Si     0.473300000000     0.625300000000     0.511875000000     0          
T        Si     0.793000000000     0.847700000000     0.511925000000     0          
T        Si     0.429000000000     0.055000000000     0.737975000000     0          
T        Si     0.526700000000     0.152000000000     0.738125000000     0          
T        Si     0.207000000000     0.054700000000     0.738075000000     0          
T        Si     0.374000000000     0.429000000000     0.612975000000     0          
T        Si     0.374700000000     0.526700000000     0.613125000000     0          
T        Si     0.152300000000     0.207000000000     0.613075000000     0          
T        Si     0.945000000000     0.374000000000     0.737975000000     0          
T        Si     0.848000000000     0.374700000000     0.738125000000     0          
T        Si     0.945300000000     0.152300000000     0.738075000000     0          
T        Si     0.571000000000     0.945000000000     0.612975000000     0          
T        Si     0.473300000000     0.848000000000     0.613125000000     0          
T        Si     0.793000000000     0.945300000000     0.613075000000     0          
T        Si     0.626000000000     0.571000000000     0.737975000000     0          
T        Si     0.625300000000     0.473300000000     0.738125000000     0          
T        Si     0.847700000000     0.793000000000     0.738075000000     0          
T        Si     0.055000000000     0.626000000000     0.612975000000     0          
T        Si     0.152000000000     0.625300000000     0.613125000000     0          
T        Si     0.054700000000     0.847700000000     0.613075000000     0          
T        Si     0.055000000000     0.429000000000     0.862975000000     0          
T        Si     0.152000000000     0.526700000000     0.863125000000     0          
T        Si     0.054700000000     0.207000000000     0.863075000000     0          
T        Si     0.192800000000     0.487300000000     0.937500000000     0          
T        Si     0.095300000000     0.389400000000     0.937500000000     0          
T        Si     0.094000000000     0.286500000000     0.937500000000     0          
T        Si     0.626000000000     0.055000000000     0.987975000000     0          
T        Si     0.625300000000     0.152000000000     0.988125000000     0          
T        Si     0.847700000000     0.054700000000     0.988075000000     0          
T        Si     0.705500000000     0.192800000000     0.812500000000     0          
T        Si     0.705900000000     0.095300000000     0.812500000000     0          
T        Si     0.807500000000     0.094000000000     0.812500000000     0          
T        Si     0.571000000000     0.626000000000     0.862975000000     0          
T        Si     0.473300000000     0.625300000000     0.863125000000     0          
T        Si     0.793000000000     0.847700000000     0.863075000000     0          
T        Si     0.512700000000     0.705500000000     0.937500000000     0          
T        Si     0.610600000000     0.705900000000     0.937500000000     0          
T        Si     0.713500000000     0.807500000000     0.937500000000     0          
T        Si     0.945000000000     0.571000000000     0.987975000000     0          
T        Si     0.848000000000     0.473300000000     0.988125000000     0          
T        Si     0.945300000000     0.793000000000     0.988075000000     0          
T        Si     0.807200000000     0.512700000000     0.812500000000     0          
T        Si     0.904700000000     0.610600000000     0.812500000000     0          
T        Si     0.906000000000     0.713500000000     0.812500000000     0          
T        Si     0.374000000000     0.945000000000     0.862975000000     0          
T        Si     0.374700000000     0.848000000000     0.863125000000     0          
T        Si     0.152300000000     0.945300000000     0.863075000000     0          
T        Si     0.294500000000     0.807200000000     0.937500000000     0          
T        Si     0.294100000000     0.904700000000     0.937500000000     0          
T        Si     0.192500000000     0.906000000000     0.937500000000     0          
T        Si     0.429000000000     0.374000000000     0.987975000000     0          
T        Si     0.526700000000     0.374700000000     0.988125000000     0          
T        Si     0.207000000000     0.152300000000     0.988075000000     0          
T        Si     0.487300000000     0.294500000000     0.812500000000     0          
T        Si     0.389400000000     0.294100000000     0.812500000000     0          
T        Si     0.286500000000     0.192500000000     0.812500000000     0          
T        Si     0.571000000000     0.945000000000     0.762025000000     0          
T        Si     0.473300000000     0.848000000000     0.761875000000     0          
T        Si     0.793000000000     0.945300000000     0.761925000000     0          
T        Si     0.512700000000     0.807200000000     0.937500000000     0          
T        Si     0.610600000000     0.904700000000     0.937500000000     0          
T        Si     0.713500000000     0.906000000000     0.937500000000     0          
T        Si     0.626000000000     0.571000000000     0.887025000000     0          
T        Si     0.625300000000     0.473300000000     0.886875000000     0          
T        Si     0.847700000000     0.793000000000     0.886925000000     0          
T        Si     0.705500000000     0.512700000000     0.812500000000     0          
T        Si     0.705900000000     0.610600000000     0.812500000000     0          
T        Si     0.807500000000     0.713500000000     0.812500000000     0          
T        Si     0.055000000000     0.626000000000     0.762025000000     0          
T        Si     0.152000000000     0.625300000000     0.761875000000     0          
T        Si     0.054700000000     0.847700000000     0.761925000000     0          
T        Si     0.192800000000     0.705500000000     0.937500000000     0          
T        Si     0.095300000000     0.705900000000     0.937500000000     0          
T        Si     0.094000000000     0.807500000000     0.937500000000     0          
T        Si     0.429000000000     0.055000000000     0.887025000000     0          
T        Si     0.526700000000     0.152000000000     0.886875000000     0          
T        Si     0.207000000000     0.054700000000     0.886925000000     0          
T        Si     0.487300000000     0.192800000000     0.812500000000     0          
T        Si     0.389400000000     0.095300000000     0.812500000000     0          
T        Si     0.286500000000     0.094000000000     0.812500000000     0          
T        Si     0.374000000000     0.429000000000     0.762025000000     0          
T        Si     0.374700000000     0.526700000000     0.761875000000     0          
T        Si     0.152300000000     0.207000000000     0.761925000000     0          
T        Si     0.294500000000     0.487300000000     0.937500000000     0          
T        Si     0.294100000000     0.389400000000     0.937500000000     0          
T        Si     0.192500000000     0.286500000000     0.937500000000     0          
T        Si     0.945000000000     0.374000000000     0.887025000000     0          
T        Si     0.848000000000     0.374700000000     0.886875000000     0          
T        Si     0.945300000000     0.152300000000     0.886925000000     0          
T        Si     0.807200000000     0.294500000000     0.812500000000     0          
T        Si     0.904700000000     0.294100000000     0.812500000000     0          
T        Si     0.906000000000     0.192500000000     0.812500000000     0          
T        Si     0.945000000000     0.571000000000     0.887025000000     0          
T        Si     0.848000000000     0.473300000000     0.886875000000     0          
T        Si     0.945300000000     0.793000000000     0.886925000000     0          
T        Si     0.374000000000     0.945000000000     0.762025000000     0          
T        Si     0.374700000000     0.848000000000     0.761875000000     0          
T        Si     0.152300000000     0.945300000000     0.761925000000     0          
T        Si     0.429000000000     0.374000000000     0.887025000000     0          
T        Si     0.526700000000     0.374700000000     0.886875000000     0          
T        Si     0.207000000000     0.152300000000     0.886925000000     0          
T        Si     0.055000000000     0.429000000000     0.762025000000     0          
T        Si     0.152000000000     0.526700000000     0.761875000000     0          
T        Si     0.054700000000     0.207000000000     0.761925000000     0          
T        Si     0.626000000000     0.055000000000     0.887025000000     0          
T        Si     0.625300000000     0.152000000000     0.886875000000     0          
T        Si     0.847700000000     0.054700000000     0.886925000000     0          
T        Si     0.571000000000     0.626000000000     0.762025000000     0          
T        Si     0.473300000000     0.625300000000     0.761875000000     0          
T        Si     0.793000000000     0.847700000000     0.761925000000     0          
T        Si     0.429000000000     0.055000000000     0.987975000000     0          
T        Si     0.526700000000     0.152000000000     0.988125000000     0          
T        Si     0.207000000000     0.054700000000     0.988075000000     0          
T        Si     0.374000000000     0.429000000000     0.862975000000     0          
T        Si     0.374700000000     0.526700000000     0.863125000000     0          
T        Si     0.152300000000     0.207000000000     0.863075000000     0          
T        Si     0.945000000000     0.374000000000     0.987975000000     0          
T        Si     0.848000000000     0.374700000000     0.988125000000     0          
T        Si     0.945300000000     0.152300000000     0.988075000000     0          
T        Si     0.571000000000     0.945000000000     0.862975000000     0          
T        Si     0.473300000000     0.848000000000     0.863125000000     0          
T        Si     0.793000000000     0.945300000000     0.863075000000     0          
T        Si     0.626000000000     0.571000000000     0.987975000000     0          
T        Si     0.625300000000     0.473300000000     0.988125000000     0          
T        Si     0.847700000000     0.793000000000     0.988075000000     0          
T        Si     0.055000000000     0.626000000000     0.862975000000     0          
T        Si     0.152000000000     0.625300000000     0.863125000000     0          
T        Si     0.054700000000     0.847700000000     0.863075000000     0          
O        O      0.000000000000     0.417700000000     0.125000000000     0          
O        O      0.094100000000     0.487000000000     0.119625000000     0          
O        O      0.070000000000     0.396900000000     0.144275000000     0          
O        O      0.056200000000     0.414000000000     0.062500000000     0          
O        O      0.184500000000     0.512100000000     0.144250000000     0          
O        O      0.248600000000     0.497200000000     0.187500000000     0          
O        O      0.153800000000     0.428800000000     0.187500000000     0          
O        O      0.167100000000     0.526600000000     0.062500000000     0          
O        O      0.162100000000     0.581000000000     0.126125000000     0          
O        O      0.000000000000     0.162600000000     0.125000000000     0          
O        O      0.056000000000     0.222900000000     0.062500000000     0          
O        O      0.094500000000     0.189100000000     0.120300000000     0          
O        O      0.068400000000     0.253800000000     0.144250000000     0          
O        O      0.086400000000     0.333900000000     0.187500000000     0          
O        O      0.152300000000     0.304600000000     0.187500000000     0          
O        O      0.582300000000     0.000000000000     0.000000000000     0          
O        O      0.607100000000     0.094100000000     0.244625000000     0          
O        O      0.673100000000     0.070000000000     0.019275000000     0          
O        O      0.642200000000     0.056200000000     0.187500000000     0          
O        O      0.672400000000     0.184500000000     0.019250000000     0          
O        O      0.751400000000     0.248600000000     0.062500000000     0          
O        O      0.725000000000     0.153800000000     0.062500000000     0          
O        O      0.640500000000     0.167100000000     0.187500000000     0          
O        O      0.581100000000     0.162100000000     0.001125000000     0          
O        O      0.837400000000     0.000000000000     0.000000000000     0          
O        O      0.833100000000     0.056000000000     0.187500000000     0          
O        O      0.905400000000     0.094500000000     0.245300000000     0          
O        O      0.814600000000     0.068400000000     0.019250000000     0          
O        O      0.752500000000     0.086400000000     0.062500000000     0          
O        O      0.847700000000     0.152300000000     0.062500000000     0          
O        O      0.582300000000     0.582300000000     0.125000000000     0          
O        O      0.513000000000     0.607100000000     0.119625000000     0          
O        O      0.603100000000     0.673100000000     0.144275000000     0          
O        O      0.586000000000     0.642200000000     0.062500000000     0          
O        O      0.487900000000     0.672400000000     0.144250000000     0          
O        O      0.502800000000     0.751400000000     0.187500000000     0          
O        O      0.571200000000     0.725000000000     0.187500000000     0          
O        O      0.473400000000     0.640500000000     0.062500000000     0          
O        O      0.419000000000     0.581100000000     0.126125000000     0          
O        O      0.837400000000     0.837400000000     0.125000000000     0          
O        O      0.777100000000     0.833100000000     0.062500000000     0          
O        O      0.810900000000     0.905400000000     0.120300000000     0          
O        O      0.746200000000     0.814600000000     0.144250000000     0          
O        O      0.666100000000     0.752500000000     0.187500000000     0          
O        O      0.695400000000     0.847700000000     0.187500000000     0          
O        O      0.000000000000     0.582300000000     0.000000000000     0          
O        O      0.905900000000     0.513000000000     0.244625000000     0          
O        O      0.930000000000     0.603100000000     0.019275000000     0          
O        O      0.943800000000     0.586000000000     0.187500000000     0          
O        O      0.815500000000     0.487900000000     0.019250000000     0          
O        O      0.751400000000     0.502800000000     0.062500000000     0          
O        O      0.846200000000     0.571200000000     0.062500000000     0          
O        O      0.832900000000     0.473400000000     0.187500000000     0          
O        O      0.837900000000     0.419000000000     0.001125000000     0          
O        O      0.000000000000     0.837400000000     0.000000000000     0          
O        O      0.944000000000     0.777100000000     0.187500000000     0          
O        O      0.905500000000     0.810900000000     0.245300000000     0          
O        O      0.931600000000     0.746200000000     0.019250000000     0          
O        O      0.913600000000     0.666100000000     0.062500000000     0          
O        O      0.847700000000     0.695400000000     0.062500000000     0          
O        O      0.417700000000     0.000000000000     0.125000000000     0          
O        O      0.392900000000     0.905900000000     0.119625000000     0          
O        O      0.326900000000     0.930000000000     0.144275000000     0          
O        O      0.357800000000     0.943800000000     0.062500000000     0          
O        O      0.327600000000     0.815500000000     0.144250000000     0          
O        O      0.248600000000     0.751400000000     0.187500000000     0          
O        O      0.275000000000     0.846200000000     0.187500000000     0          
O        O      0.359500000000     0.832900000000     0.062500000000     0          
O        O      0.418900000000     0.837900000000     0.126125000000     0          
O        O      0.162600000000     0.000000000000     0.125000000000     0          
O        O      0.166900000000     0.944000000000     0.062500000000     0          
O        O      0.094600000000     0.905500000000     0.120300000000     0          
O        O      0.185400000000     0.931600000000     0.144250000000     0          
O        O      0.247500000000     0.913600000000     0.187500000000     0          
O        O      0.152300000000     0.847700000000     0.187500000000     0          
O        O      0.417700000000     0.417700000000     0.000000000000     0          
O        O      0.487000000000     0.392900000000     0.244625000000     0          
O        O      0.396900000000     0.326900000000     0.019275000000     0          
O        O      0.414000000000     0.357800000000     0.187500000000     0          
O        O      0.512100000000     0.327600000000     0.019250000000     0          
O        O      0.497200000000     0.248600000000     0.062500000000     0          
O        O      0.428800000000     0.275000000000     0.062500000000     0          
O        O      0.526600000000     0.359500000000     0.187500000000     0          
O        O      0.581000000000     0.418900000000     0.001125000000     0          
O        O      0.162600000000     0.162600000000     0.000000000000     0          
O        O      0.222900000000     0.166900000000     0.187500000000     0          
O        O      0.189100000000     0.094600000000     0.245300000000     0          
O        O      0.253800000000     0.185400000000     0.019250000000     0          
O        O      0.333900000000     0.247500000000     0.062500000000     0          
O        O      0.304600000000     0.152300000000     0.062500000000     0          
O        O      0.513000000000     0.905900000000     0.005375000000     0          
O        O      0.603100000000     0.930000000000     0.230725000000     0          
O        O      0.586000000000     0.943800000000     0.062500000000     0          
O        O      0.487900000000     0.815500000000     0.230750000000     0          
O        O      0.571200000000     0.846200000000     0.187500000000     0          
O        O      0.473400000000     0.832900000000     0.062500000000     0          
O        O      0.419000000000     0.837900000000     0.248875000000     0          
O        O      0.777100000000     0.944000000000     0.062500000000     0          
O        O      0.810900000000     0.905500000000     0.004700000000     0          
O        O      0.746200000000     0.931600000000     0.230750000000     0          
O        O      0.666100000000     0.913600000000     0.187500000000     0          
O        O      0.607100000000     0.513000000000     0.130375000000     0          
O        O      0.673100000000     0.603100000000     0.105725000000     0          
O        O      0.642200000000     0.586000000000     0.187500000000     0          
O        O      0.672400000000     0.487900000000     0.105750000000     0          
O        O      0.725000000000     0.571200000000     0.062500000000     0          
O        O      0.640500000000     0.473400000000     0.187500000000     0          
O        O      0.581100000000     0.419000000000     0.123875000000     0          
O        O      0.833100000000     0.777100000000     0.187500000000     0          
O        O      0.905400000000     0.810900000000     0.129700000000     0          
O        O      0.814600000000     0.746200000000     0.105750000000     0          
O        O      0.752500000000     0.666100000000     0.062500000000     0          
O        O      0.094100000000     0.607100000000     0.005375000000     0          
O        O      0.070000000000     0.673100000000     0.230725000000     0          
O        O      0.056200000000     0.642200000000     0.062500000000     0          
O        O      0.184500000000     0.672400000000     0.230750000000     0          
O        O      0.153800000000     0.725000000000     0.187500000000     0          
O        O      0.167100000000     0.640500000000     0.062500000000     0          
O        O      0.162100000000     0.581100000000     0.248875000000     0          
O        O      0.056000000000     0.833100000000     0.062500000000     0          
O        O      0.094500000000     0.905400000000     0.004700000000     0          
O        O      0.068400000000     0.814600000000     0.230750000000     0          
O        O      0.086400000000     0.752500000000     0.187500000000     0          
O        O      0.487000000000     0.094100000000     0.130375000000     0          
O        O      0.396900000000     0.070000000000     0.105725000000     0          
O        O      0.414000000000     0.056200000000     0.187500000000     0          
O        O      0.512100000000     0.184500000000     0.105750000000     0          
O        O      0.428800000000     0.153800000000     0.062500000000     0          
O        O      0.526600000000     0.167100000000     0.187500000000     0          
O        O      0.581000000000     0.162100000000     0.123875000000     0          
O        O      0.222900000000     0.056000000000     0.187500000000     0          
O        O      0.189100000000     0.094500000000     0.129700000000     0          
O        O      0.253800000000     0.068400000000     0.105750000000     0          
O        O      0.333900000000     0.086400000000     0.062500000000     0          
O        O      0.392900000000     0.487000000000     0.005375000000     0          
O        O      0.326900000000     0.396900000000     0.230725000000     0          
O        O      0.357800000000     0.414000000000     0.062500000000     0          
O        O      0.327600000000     0.512100000000     0.230750000000     0          
O        O      0.275000000000     0.428800000000     0.187500000000     0          
O        O      0.359500000000     0.526600000000     0.062500000000     0          
O        O      0.418900000000     0.581000000000     0.248875000000     0          
O        O      0.166900000000     0.222900000000     0.062500000000     0          
O        O      0.094600000000     0.189100000000     0.004700000000     0          
O        O      0.185400000000     0.253800000000     0.230750000000     0          
O        O      0.247500000000     0.333900000000     0.187500000000     0          
O        O      0.905900000000     0.392900000000     0.130375000000     0          
O        O      0.930000000000     0.326900000000     0.105725000000     0          
O        O      0.943800000000     0.357800000000     0.187500000000     0          
O        O      0.815500000000     0.327600000000     0.105750000000     0          
O        O      0.846200000000     0.275000000000     0.062500000000     0          
O        O      0.832900000000     0.359500000000     0.187500000000     0          
O        O      0.837900000000     0.418900000000     0.123875000000     0          
O        O      0.944000000000     0.166900000000     0.187500000000     0          
O        O      0.905500000000     0.094600000000     0.129700000000     0          
O        O      0.931600000000     0.185400000000     0.105750000000     0          
O        O      0.913600000000     0.247500000000     0.062500000000     0          
O        O      0.000000000000     0.582300000000     0.125000000000     0          
O        O      0.905900000000     0.513000000000     0.130375000000     0          
O        O      0.930000000000     0.603100000000     0.105725000000     0          
O        O      0.815500000000     0.487900000000     0.105750000000     0          
O        O      0.000000000000     0.837400000000     0.125000000000     0          
O        O      0.931600000000     0.746200000000     0.105750000000     0          
O        O      0.417700000000     0.000000000000     0.000000000000     0          
O        O      0.392900000000     0.905900000000     0.005375000000     0          
O        O      0.326900000000     0.930000000000     0.230725000000     0          
O        O      0.327600000000     0.815500000000     0.230750000000     0          
O        O      0.162600000000     0.000000000000     0.000000000000     0          
O        O      0.185400000000     0.931600000000     0.230750000000     0          
O        O      0.417700000000     0.417700000000     0.125000000000     0          
O        O      0.487000000000     0.392900000000     0.130375000000     0          
O        O      0.396900000000     0.326900000000     0.105725000000     0          
O        O      0.512100000000     0.327600000000     0.105750000000     0          
O        O      0.162600000000     0.162600000000     0.125000000000     0          
O        O      0.253800000000     0.185400000000     0.105750000000     0          
O        O      0.000000000000     0.417700000000     0.000000000000     0          
O        O      0.094100000000     0.487000000000     0.005375000000     0          
O        O      0.070000000000     0.396900000000     0.230725000000     0          
O        O      0.184500000000     0.512100000000     0.230750000000     0          
O        O      0.000000000000     0.162600000000     0.000000000000     0          
O        O      0.068400000000     0.253800000000     0.230750000000     0          
O        O      0.582300000000     0.000000000000     0.125000000000     0          
O        O      0.607100000000     0.094100000000     0.130375000000     0          
O        O      0.673100000000     0.070000000000     0.105725000000     0          
O        O      0.672400000000     0.184500000000     0.105750000000     0          
O        O      0.837400000000     0.000000000000     0.125000000000     0          
O        O      0.814600000000     0.068400000000     0.105750000000     0          
O        O      0.582300000000     0.582300000000     0.000000000000     0          
O        O      0.513000000000     0.607100000000     0.005375000000     0          
O        O      0.603100000000     0.673100000000     0.230725000000     0          
O        O      0.487900000000     0.672400000000     0.230750000000     0          
O        O      0.837400000000     0.837400000000     0.000000000000     0          
O        O      0.746200000000     0.814600000000     0.230750000000     0          
O        O      0.487000000000     0.094100000000     0.244625000000     0          
O        O      0.396900000000     0.070000000000     0.019275000000     0          
O        O      0.512100000000     0.184500000000     0.019250000000     0          
O        O      0.253800000000     0.068400000000     0.019250000000     0          
O        O      0.392900000000     0.487000000000     0.119625000000     0          
O        O      0.326900000000     0.396900000000     0.144275000000     0          
O        O      0.327600000000     0.512100000000     0.144250000000     0          
O        O      0.185400000000     0.253800000000     0.144250000000     0          
O        O      0.905900000000     0.392900000000     0.244625000000     0          
O        O      0.930000000000     0.326900000000     0.019275000000     0          
O        O      0.815500000000     0.327600000000     0.019250000000     0          
O        O      0.931600000000     0.185400000000     0.019250000000     0          
O        O      0.513000000000     0.905900000000     0.119625000000     0          
O        O      0.603100000000     0.930000000000     0.144275000000     0          
O        O      0.487900000000     0.815500000000     0.144250000000     0          
O        O      0.746200000000     0.931600000000     0.144250000000     0          
O        O      0.607100000000     0.513000000000     0.244625000000     0          
O        O      0.673100000000     0.603100000000     0.019275000000     0          
O        O      0.672400000000     0.487900000000     0.019250000000     0          
O        O      0.814600000000     0.746200000000     0.019250000000     0          
O        O      0.094100000000     0.607100000000     0.119625000000     0          
O        O      0.070000000000     0.673100000000     0.144275000000     0          
O        O      0.184500000000     0.672400000000     0.144250000000     0          
O        O      0.068400000000     0.814600000000     0.144250000000     0          
O        O      0.000000000000     0.417700000000     0.375000000000     0          
O        O      0.094100000000     0.487000000000     0.369625000000     0          
O        O      0.070000000000     0.396900000000     0.394275000000     0          
O        O      0.056200000000     0.414000000000     0.312500000000     0          
O        O      0.184500000000     0.512100000000     0.394250000000     0          
O        O      0.248600000000     0.497200000000     0.437500000000     0          
O        O      0.153800000000     0.428800000000     0.437500000000     0          
O        O      0.167100000000     0.526600000000     0.312500000000     0          
O        O      0.162100000000     0.581000000000     0.376125000000     0          
O        O      0.000000000000     0.162600000000     0.375000000000     0          
O        O      0.056000000000     0.222900000000     0.312500000000     0          
O        O      0.094500000000     0.189100000000     0.370300000000     0          
O        O      0.068400000000     0.253800000000     0.394250000000     0          
O        O      0.086400000000     0.333900000000     0.437500000000     0          
O        O      0.152300000000     0.304600000000     0.437500000000     0          
O        O      0.582300000000     0.000000000000     0.250000000000     0          
O        O      0.607100000000     0.094100000000     0.494625000000     0          
O        O      0.673100000000     0.070000000000     0.269275000000     0          
O        O      0.642200000000     0.056200000000     0.437500000000     0          
O        O      0.672400000000     0.184500000000     0.269250000000     0          
O        O      0.751400000000     0.248600000000     0.312500000000     0          
O        O      0.725000000000     0.153800000000     0.312500000000     0          
O        O      0.640500000000     0.167100000000     0.437500000000     0          
O        O      0.581100000000     0.162100000000     0.251125000000     0          
O        O      0.837400000000     0.000000000000     0.250000000000     0          
O        O      0.833100000000     0.056000000000     0.437500000000     0          
O        O      0.905400000000     0.094500000000     0.495300000000     0          
O        O      0.814600000000     0.068400000000     0.269250000000     0          
O        O      0.752500000000     0.086400000000     0.312500000000     0          
O        O      0.847700000000     0.152300000000     0.312500000000     0          
O        O      0.582300000000     0.582300000000     0.375000000000     0          
O        O      0.513000000000     0.607100000000     0.369625000000     0          
O        O      0.603100000000     0.673100000000     0.394275000000     0          
O        O      0.586000000000     0.642200000000     0.312500000000     0          
O        O      0.487900000000     0.672400000000     0.394250000000     0          
O        O      0.502800000000     0.751400000000     0.437500000000     0          
O        O      0.571200000000     0.725000000000     0.437500000000     0          
O        O      0.473400000000     0.640500000000     0.312500000000     0          
O        O      0.419000000000     0.581100000000     0.376125000000     0          
O        O      0.837400000000     0.837400000000     0.375000000000     0          
O        O      0.777100000000     0.833100000000     0.312500000000     0          
O        O      0.810900000000     0.905400000000     0.370300000000     0          
O        O      0.746200000000     0.814600000000     0.394250000000     0          
O        O      0.666100000000     0.752500000000     0.437500000000     0          
O        O      0.695400000000     0.847700000000     0.437500000000     0          
O        O      0.000000000000     0.582300000000     0.250000000000     0          
O        O      0.905900000000     0.513000000000     0.494625000000     0          
O        O      0.930000000000     0.603100000000     0.269275000000     0          
O        O      0.943800000000     0.586000000000     0.437500000000     0          
O        O      0.815500000000     0.487900000000     0.269250000000     0          
O        O      0.751400000000     0.502800000000     0.312500000000     0          
O        O      0.846200000000     0.571200000000     0.312500000000     0          
O        O      0.832900000000     0.473400000000     0.437500000000     0          
O        O      0.837900000000     0.419000000000     0.251125000000     0          
O        O      0.000000000000     0.837400000000     0.250000000000     0          
O        O      0.944000000000     0.777100000000     0.437500000000     0          
O        O      0.905500000000     0.810900000000     0.495300000000     0          
O        O      0.931600000000     0.746200000000     0.269250000000     0          
O        O      0.913600000000     0.666100000000     0.312500000000     0          
O        O      0.847700000000     0.695400000000     0.312500000000     0          
O        O      0.417700000000     0.000000000000     0.375000000000     0          
O        O      0.392900000000     0.905900000000     0.369625000000     0          
O        O      0.326900000000     0.930000000000     0.394275000000     0          
O        O      0.357800000000     0.943800000000     0.312500000000     0          
O        O      0.327600000000     0.815500000000     0.394250000000     0          
O        O      0.248600000000     0.751400000000     0.437500000000     0          
O        O      0.275000000000     0.846200000000     0.437500000000     0          
O        O      0.359500000000     0.832900000000     0.312500000000     0          
O        O      0.418900000000     0.837900000000     0.376125000000     0          
O        O      0.162600000000     0.000000000000     0.375000000000     0          
O        O      0.166900000000     0.944000000000     0.312500000000     0          
O        O      0.094600000000     0.905500000000     0.370300000000     0          
O        O      0.185400000000     0.931600000000     0.394250000000     0          
O        O      0.247500000000     0.913600000000     0.437500000000     0          
O        O      0.152300000000     0.847700000000     0.437500000000     0          
O        O      0.417700000000     0.417700000000     0.250000000000     0          
O        O      0.487000000000     0.392900000000     0.494625000000     0          
O        O      0.396900000000     0.326900000000     0.269275000000     0          
O        O      0.414000000000     0.357800000000     0.437500000000     0          
O        O      0.512100000000     0.327600000000     0.269250000000     0          
O        O      0.497200000000     0.248600000000     0.312500000000     0          
O        O      0.428800000000     0.275000000000     0.312500000000     0          
O        O      0.526600000000     0.359500000000     0.437500000000     0          
O        O      0.581000000000     0.418900000000     0.251125000000     0          
O        O      0.162600000000     0.162600000000     0.250000000000     0          
O        O      0.222900000000     0.166900000000     0.437500000000     0          
O        O      0.189100000000     0.094600000000     0.495300000000     0          
O        O      0.253800000000     0.185400000000     0.269250000000     0          
O        O      0.333900000000     0.247500000000     0.312500000000     0          
O        O      0.304600000000     0.152300000000     0.312500000000     0          
O        O      0.513000000000     0.905900000000     0.255375000000     0          
O        O      0.603100000000     0.930000000000     0.480725000000     0          
O        O      0.586000000000     0.943800000000     0.312500000000     0          
O        O      0.487900000000     0.815500000000     0.480750000000     0          
O        O      0.571200000000     0.846200000000     0.437500000000     0          
O        O      0.473400000000     0.832900000000     0.312500000000     0          
O        O      0.419000000000     0.837900000000     0.498875000000     0          
O        O      0.777100000000     0.944000000000     0.312500000000     0          
O        O      0.810900000000     0.905500000000     0.254700000000     0          
O        O      0.746200000000     0.931600000000     0.480750000000     0          
O        O      0.666100000000     0.913600000000     0.437500000000     0          
O        O      0.607100000000     0.513000000000     0.380375000000     0          
O        O      0.673100000000     0.603100000000     0.355725000000     0          
O        O      0.642200000000     0.586000000000     0.437500000000     0          
O        O      0.672400000000     0.487900000000     0.355750000000     0          
O        O      0.725000000000     0.571200000000     0.312500000000     0          
O        O      0.640500000000     0.473400000000     0.437500000000     0          
O        O      0.581100000000     0.419000000000     0.373875000000     0          
O        O      0.833100000000     0.777100000000     0.437500000000     0          
O        O      0.905400000000     0.810900000000     0.379700000000     0          
O        O      0.814600000000     0.746200000000     0.355750000000     0          
O        O      0.752500000000     0.666100000000     0.312500000000     0          
O        O      0.094100000000     0.607100000000     0.255375000000     0          
O        O      0.070000000000     0.673100000000     0.480725000000     0          
O        O      0.056200000000     0.642200000000     0.312500000000     0          
O        O      0.184500000000     0.672400000000     0.480750000000     0          
O        O      0.153800000000     0.725000000000     0.437500000000     0          
O        O      0.167100000000     0.640500000000     0.312500000000     0          
O        O      0.162100000000     0.581100000000     0.498875000000     0          
O        O      0.056000000000     0.833100000000     0.312500000000     0          
O        O      0.094500000000     0.905400000000     0.254700000000     0          
O        O      0.068400000000     0.814600000000     0.480750000000     0          
O        O      0.086400000000     0.752500000000     0.437500000000     0          
O        O      0.487000000000     0.094100000000     0.380375000000     0          
O        O      0.396900000000     0.070000000000     0.355725000000     0          
O        O      0.414000000000     0.056200000000     0.437500000000     0          
O        O      0.512100000000     0.184500000000     0.355750000000     0          
O        O      0.428800000000     0.153800000000     0.312500000000     0          
O        O      0.526600000000     0.167100000000     0.437500000000     0          
O        O      0.581000000000     0.162100000000     0.373875000000     0          
O        O      0.222900000000     0.056000000000     0.437500000000     0          
O        O      0.189100000000     0.094500000000     0.379700000000     0          
O        O      0.253800000000     0.068400000000     0.355750000000     0          
O        O      0.333900000000     0.086400000000     0.312500000000     0          
O        O      0.392900000000     0.487000000000     0.255375000000     0          
O        O      0.326900000000     0.396900000000     0.480725000000     0          
O        O      0.357800000000     0.414000000000     0.312500000000     0          
O        O      0.327600000000     0.512100000000     0.480750000000     0          
O        O      0.275000000000     0.428800000000     0.437500000000     0          
O        O      0.359500000000     0.526600000000     0.312500000000     0          
O        O      0.418900000000     0.581000000000     0.498875000000     0          
O        O      0.166900000000     0.222900000000     0.312500000000     0          
O        O      0.094600000000     0.189100000000     0.254700000000     0          
O        O      0.185400000000     0.253800000000     0.480750000000     0          
O        O      0.247500000000     0.333900000000     0.437500000000     0          
O        O      0.905900000000     0.392900000000     0.380375000000     0          
O        O      0.930000000000     0.326900000000     0.355725000000     0          
O        O      0.943800000000     0.357800000000     0.437500000000     0          
O        O      0.815500000000     0.327600000000     0.355750000000     0          
O        O      0.846200000000     0.275000000000     0.312500000000     0          
O        O      0.832900000000     0.359500000000     0.437500000000     0          
O        O      0.837900000000     0.418900000000     0.373875000000     0          
O        O      0.944000000000     0.166900000000     0.437500000000     0          
O        O      0.905500000000     0.094600000000     0.379700000000     0          
O        O      0.931600000000     0.185400000000     0.355750000000     0          
O        O      0.913600000000     0.247500000000     0.312500000000     0          
O        O      0.000000000000     0.582300000000     0.375000000000     0          
O        O      0.905900000000     0.513000000000     0.380375000000     0          
O        O      0.930000000000     0.603100000000     0.355725000000     0          
O        O      0.815500000000     0.487900000000     0.355750000000     0          
O        O      0.000000000000     0.837400000000     0.375000000000     0          
O        O      0.931600000000     0.746200000000     0.355750000000     0          
O        O      0.417700000000     0.000000000000     0.250000000000     0          
O        O      0.392900000000     0.905900000000     0.255375000000     0          
O        O      0.326900000000     0.930000000000     0.480725000000     0          
O        O      0.327600000000     0.815500000000     0.480750000000     0          
O        O      0.162600000000     0.000000000000     0.250000000000     0          
O        O      0.185400000000     0.931600000000     0.480750000000     0          
O        O      0.417700000000     0.417700000000     0.375000000000     0          
O        O      0.487000000000     0.392900000000     0.380375000000     0          
O        O      0.396900000000     0.326900000000     0.355725000000     0          
O        O      0.512100000000     0.327600000000     0.355750000000     0          
O        O      0.162600000000     0.162600000000     0.375000000000     0          
O        O      0.253800000000     0.185400000000     0.355750000000     0          
O        O      0.000000000000     0.417700000000     0.250000000000     0          
O        O      0.094100000000     0.487000000000     0.255375000000     0          
O        O      0.070000000000     0.396900000000     0.480725000000     0          
O        O      0.184500000000     0.512100000000     0.480750000000     0          
O        O      0.000000000000     0.162600000000     0.250000000000     0          
O        O      0.068400000000     0.253800000000     0.480750000000     0          
O        O      0.582300000000     0.000000000000     0.375000000000     0          
O        O      0.607100000000     0.094100000000     0.380375000000     0          
O        O      0.673100000000     0.070000000000     0.355725000000     0          
O        O      0.672400000000     0.184500000000     0.355750000000     0          
O        O      0.837400000000     0.000000000000     0.375000000000     0          
O        O      0.814600000000     0.068400000000     0.355750000000     0          
O        O      0.582300000000     0.582300000000     0.250000000000     0          
O        O      0.513000000000     0.607100000000     0.255375000000     0          
O        O      0.603100000000     0.673100000000     0.480725000000     0          
O        O      0.487900000000     0.672400000000     0.480750000000     0          
O        O      0.837400000000     0.837400000000     0.250000000000     0          
O        O      0.746200000000     0.814600000000     0.480750000000     0          
O        O      0.487000000000     0.094100000000     0.494625000000     0          
O        O      0.396900000000     0.070000000000     0.269275000000     0          
O        O      0.512100000000     0.184500000000     0.269250000000     0          
O        O      0.253800000000     0.068400000000     0.269250000000     0          
O        O      0.392900000000     0.487000000000     0.369625000000     0          
O        O      0.326900000000     0.396900000000     0.394275000000     0          
O        O      0.327600000000     0.512100000000     0.394250000000     0          
O        O      0.185400000000     0.253800000000     0.394250000000     0          
O        O      0.905900000000     0.392900000000     0.494625000000     0          
O        O      0.930000000000     0.326900000000     0.269275000000     0          
O        O      0.815500000000     0.327600000000     0.269250000000     0          
O        O      0.931600000000     0.185400000000     0.269250000000     0          
O        O      0.513000000000     0.905900000000     0.369625000000     0          
O        O      0.603100000000     0.930000000000     0.394275000000     0          
O        O      0.487900000000     0.815500000000     0.394250000000     0          
O        O      0.746200000000     0.931600000000     0.394250000000     0          
O        O      0.607100000000     0.513000000000     0.494625000000     0          
O        O      0.673100000000     0.603100000000     0.269275000000     0          
O        O      0.672400000000     0.487900000000     0.269250000000     0          
O        O      0.814600000000     0.746200000000     0.269250000000     0          
O        O      0.094100000000     0.607100000000     0.369625000000     0          
O        O      0.070000000000     0.673100000000     0.394275000000     0          
O        O      0.184500000000     0.672400000000     0.394250000000     0          
O        O      0.068400000000     0.814600000000     0.394250000000     0          
O        O      0.000000000000     0.417700000000     0.625000000000     0          
O        O      0.094100000000     0.487000000000     0.619625000000     0          
O        O      0.070000000000     0.396900000000     0.644275000000     0          
O        O      0.056200000000     0.414000000000     0.562500000000     0          
O        O      0.184500000000     0.512100000000     0.644250000000     0          
O        O      0.248600000000     0.497200000000     0.687500000000     0          
O        O      0.153800000000     0.428800000000     0.687500000000     0          
O        O      0.167100000000     0.526600000000     0.562500000000     0          
O        O      0.162100000000     0.581000000000     0.626125000000     0          
O        O      0.000000000000     0.162600000000     0.625000000000     0          
O        O      0.056000000000     0.222900000000     0.562500000000     0          
O        O      0.094500000000     0.189100000000     0.620300000000     0          
O        O      0.068400000000     0.253800000000     0.644250000000     0          
O        O      0.086400000000     0.333900000000     0.687500000000     0          
O        O      0.152300000000     0.304600000000     0.687500000000     0          
O        O      0.582300000000     0.000000000000     0.500000000000     0          
O        O      0.607100000000     0.094100000000     0.744625000000     0          
O        O      0.673100000000     0.070000000000     0.519275000000     0          
O        O      0.642200000000     0.056200000000     0.687500000000     0          
O        O      0.672400000000     0.184500000000     0.519250000000     0          
O        O      0.751400000000     0.248600000000     0.562500000000     0          
O        O      0.725000000000     0.153800000000     0.562500000000     0          
O        O      0.640500000000     0.167100000000     0.687500000000     0          
O        O      0.581100000000     0.162100000000     0.501125000000     0          
O        O      0.837400000000     0.000000000000     0.500000000000     0          
O        O      0.833100000000     0.056000000000     0.687500000000     0          
O        O      0.905400000000     0.094500000000     0.745300000000     0          
O        O      0.814600000000     0.068400000000     0.519250000000     0          
O        O      0.752500000000     0.086400000000     0.562500000000     0          
O        O      0.847700000000     0.152300000000     0.562500000000     0          
O        O      0.582300000000     0.582300000000     0.625000000000     0          
O        O      0.513000000000     0.607100000000     0.619625000000     0          
O        O      0.603100000000     0.673100000000     0.644275000000     0          
O        O      0.586000000000     0.642200000000     0.562500000000     0          
O        O      0.487900000000     0.672400000000     0.644250000000     0          
O        O      0.502800000000     0.751400000000     0.687500000000     0          
O        O      0.571200000000     0.725000000000     0.687500000000     0          
O        O      0.473400000000     0.640500000000     0.562500000000     0          
O        O      0.419000000000     0.581100000000     0.626125000000     0          
O        O      0.837400000000     0.837400000000     0.625000000000     0          
O        O      0.777100000000     0.833100000000     0.562500000000     0          
O        O      0.810900000000     0.905400000000     0.620300000000     0          
O        O      0.746200000000     0.814600000000     0.644250000000     0          
O        O      0.666100000000     0.752500000000     0.687500000000     0          
O        O      0.695400000000     0.847700000000     0.687500000000     0          
O        O      0.000000000000     0.582300000000     0.500000000000     0          
O        O      0.905900000000     0.513000000000     0.744625000000     0          
O        O      0.930000000000     0.603100000000     0.519275000000     0          
O        O      0.943800000000     0.586000000000     0.687500000000     0          
O        O      0.815500000000     0.487900000000     0.519250000000     0          
O        O      0.751400000000     0.502800000000     0.562500000000     0          
O        O      0.846200000000     0.571200000000     0.562500000000     0          
O        O      0.832900000000     0.473400000000     0.687500000000     0          
O        O      0.837900000000     0.419000000000     0.501125000000     0          
O        O      0.000000000000     0.837400000000     0.500000000000     0          
O        O      0.944000000000     0.777100000000     0.687500000000     0          
O        O      0.905500000000     0.810900000000     0.745300000000     0          
O        O      0.931600000000     0.746200000000     0.519250000000     0          
O        O      0.913600000000     0.666100000000     0.562500000000     0          
O        O      0.847700000000     0.695400000000     0.562500000000     0          
O        O      0.417700000000     0.000000000000     0.625000000000     0          
O        O      0.392900000000     0.905900000000     0.619625000000     0          
O        O      0.326900000000     0.930000000000     0.644275000000     0          
O        O      0.357800000000     0.943800000000     0.562500000000     0          
O        O      0.327600000000     0.815500000000     0.644250000000     0          
O        O      0.248600000000     0.751400000000     0.687500000000     0          
O        O      0.275000000000     0.846200000000     0.687500000000     0          
O        O      0.359500000000     0.832900000000     0.562500000000     0          
O        O      0.418900000000     0.837900000000     0.626125000000     0          
O        O      0.162600000000     0.000000000000     0.625000000000     0          
O        O      0.166900000000     0.944000000000     0.562500000000     0          
O        O      0.094600000000     0.905500000000     0.620300000000     0          
O        O      0.185400000000     0.931600000000     0.644250000000     0          
O        O      0.247500000000     0.913600000000     0.687500000000     0          
O        O      0.152300000000     0.847700000000     0.687500000000     0          
O        O      0.417700000000     0.417700000000     0.500000000000     0          
O        O      0.487000000000     0.392900000000     0.744625000000     0          
O        O      0.396900000000     0.326900000000     0.519275000000     0          
O        O      0.414000000000     0.357800000000     0.687500000000     0          
O        O      0.512100000000     0.327600000000     0.519250000000     0          
O        O      0.497200000000     0.248600000000     0.562500000000     0          
O        O      0.428800000000     0.275000000000     0.562500000000     0          
O        O      0.526600000000     0.359500000000     0.687500000000     0          
O        O      0.581000000000     0.418900000000     0.501125000000     0          
O        O      0.162600000000     0.162600000000     0.500000000000     0          
O        O      0.222900000000     0.166900000000     0.687500000000     0          
O        O      0.189100000000     0.094600000000     0.745300000000     0          
O        O      0.253800000000     0.185400000000     0.519250000000     0          
O        O      0.333900000000     0.247500000000     0.562500000000     0          
O        O      0.304600000000     0.152300000000     0.562500000000     0          
O        O      0.513000000000     0.905900000000     0.505375000000     0          
O        O      0.603100000000     0.930000000000     0.730725000000     0          
O        O      0.586000000000     0.943800000000     0.562500000000     0          
O        O      0.487900000000     0.815500000000     0.730750000000     0          
O        O      0.571200000000     0.846200000000     0.687500000000     0          
O        O      0.473400000000     0.832900000000     0.562500000000     0          
O        O      0.419000000000     0.837900000000     0.748875000000     0          
O        O      0.777100000000     0.944000000000     0.562500000000     0          
O        O      0.810900000000     0.905500000000     0.504700000000     0          
O        O      0.746200000000     0.931600000000     0.730750000000     0          
O        O      0.666100000000     0.913600000000     0.687500000000     0          
O        O      0.607100000000     0.513000000000     0.630375000000     0          
O        O      0.673100000000     0.603100000000     0.605725000000     0          
O        O      0.642200000000     0.586000000000     0.687500000000     0          
O        O      0.672400000000     0.487900000000     0.605750000000     0          
O        O      0.725000000000     0.571200000000     0.562500000000     0          
O        O      0.640500000000     0.473400000000     0.687500000000     0          
O        O      0.581100000000     0.419000000000     0.623875000000     0          
O        O      0.833100000000     0.777100000000     0.687500000000     0          
O        O      0.905400000000     0.810900000000     0.629700000000     0          
O        O      0.814600000000     0.746200000000     0.605750000000     0          
O        O      0.752500000000     0.666100000000     0.562500000000     0          
O        O      0.094100000000     0.607100000000     0.505375000000     0          
O        O      0.070000000000     0.673100000000     0.730725000000     0          
O        O      0.056200000000     0.642200000000     0.562500000000     0          
O        O      0.184500000000     0.672400000000     0.730750000000     0          
O        O      0.153800000000     0.725000000000     0.687500000000     0          
O        O      0.167100000000     0.640500000000     0.562500000000     0          
O        O      0.162100000000     0.581100000000     0.748875000000     0          
O        O      0.056000000000     0.833100000000     0.562500000000     0          
O        O      0.094500000000     0.905400000000     0.504700000000     0          
O        O      0.068400000000     0.814600000000     0.730750000000     0          
O        O      0.086400000000     0.752500000000     0.687500000000     0          
O        O      0.487000000000     0.094100000000     0.630375000000     0          
O        O      0.396900000000     0.070000000000     0.605725000000     0          
O        O      0.414000000000     0.056200000000     0.687500000000     0          
O        O      0.512100000000     0.184500000000     0.605750000000     0          
O        O      0.428800000000     0.153800000000     0.562500000000     0          
O        O      0.526600000000     0.167100000000     0.687500000000     0          
O        O      0.581000000000     0.162100000000     0.623875000000     0          
O        O      0.222900000000     0.056000000000     0.687500000000     0          
O        O      0.189100000000     0.094500000000     0.629700000000     0          
O        O      0.253800000000     0.068400000000     0.605750000000     0          
O        O      0.333900000000     0.086400000000     0.562500000000     0          
O        O      0.392900000000     0.487000000000     0.505375000000     0          
O        O      0.326900000000     0.396900000000     0.730725000000     0          
O        O      0.357800000000     0.414000000000     0.562500000000     0          
O        O      0.327600000000     0.512100000000     0.730750000000     0          
O        O      0.275000000000     0.428800000000     0.687500000000     0          
O        O      0.359500000000     0.526600000000     0.562500000000     0          
O        O      0.418900000000     0.581000000000     0.748875000000     0          
O        O      0.166900000000     0.222900000000     0.562500000000     0          
O        O      0.094600000000     0.189100000000     0.504700000000     0          
O        O      0.185400000000     0.253800000000     0.730750000000     0          
O        O      0.247500000000     0.333900000000     0.687500000000     0          
O        O      0.905900000000     0.392900000000     0.630375000000     0          
O        O      0.930000000000     0.326900000000     0.605725000000     0          
O        O      0.943800000000     0.357800000000     0.687500000000     0          
O        O      0.815500000000     0.327600000000     0.605750000000     0          
O        O      0.846200000000     0.275000000000     0.562500000000     0          
O        O      0.832900000000     0.359500000000     0.687500000000     0          
O        O      0.837900000000     0.418900000000     0.623875000000     0          
O        O      0.944000000000     0.166900000000     0.687500000000     0          
O        O      0.905500000000     0.094600000000     0.629700000000     0          
O        O      0.931600000000     0.185400000000     0.605750000000     0          
O        O      0.913600000000     0.247500000000     0.562500000000     0          
O        O      0.000000000000     0.582300000000     0.625000000000     0          
O        O      0.905900000000     0.513000000000     0.630375000000     0          
O        O      0.930000000000     0.603100000000     0.605725000000     0          
O        O      0.815500000000     0.487900000000     0.605750000000     0          
O        O      0.000000000000     0.837400000000     0.625000000000     0          
O        O      0.931600000000     0.746200000000     0.605750000000     0          
O        O      0.417700000000     0.000000000000     0.500000000000     0          
O        O      0.392900000000     0.905900000000     0.505375000000     0          
O        O      0.326900000000     0.930000000000     0.730725000000     0          
O        O      0.327600000000     0.815500000000     0.730750000000     0          
O        O      0.162600000000     0.000000000000     0.500000000000     0          
O        O      0.185400000000     0.931600000000     0.730750000000     0          
O        O      0.417700000000     0.417700000000     0.625000000000     0          
O        O      0.487000000000     0.392900000000     0.630375000000     0          
O        O      0.396900000000     0.326900000000     0.605725000000     0          
O        O      0.512100000000     0.327600000000     0.605750000000     0          
O        O      0.162600000000     0.162600000000     0.625000000000     0          
O        O      0.253800000000     0.185400000000     0.605750000000     0          
O        O      0.000000000000     0.417700000000     0.500000000000     0          
O        O      0.094100000000     0.487000000000     0.505375000000     0          
O        O      0.070000000000     0.396900000000     0.730725000000     0          
O        O      0.184500000000     0.512100000000     0.730750000000     0          
O        O      0.000000000000     0.162600000000     0.500000000000     0          
O        O      0.068400000000     0.253800000000     0.730750000000     0          
O        O      0.582300000000     0.000000000000     0.625000000000     0          
O        O      0.607100000000     0.094100000000     0.630375000000     0          
O        O      0.673100000000     0.070000000000     0.605725000000     0          
O        O      0.672400000000     0.184500000000     0.605750000000     0          
O        O      0.837400000000     0.000000000000     0.625000000000     0          
O        O      0.814600000000     0.068400000000     0.605750000000     0          
O        O      0.582300000000     0.582300000000     0.500000000000     0          
O        O      0.513000000000     0.607100000000     0.505375000000     0          
O        O      0.603100000000     0.673100000000     0.730725000000     0          
O        O      0.487900000000     0.672400000000     0.730750000000     0          
O        O      0.837400000000     0.837400000000     0.500000000000     0          
O        O      0.746200000000     0.814600000000     0.730750000000     0          
O        O      0.487000000000     0.094100000000     0.744625000000     0          
O        O      0.396900000000     0.070000000000     0.519275000000     0          
O        O      0.512100000000     0.184500000000     0.519250000000     0          
O        O      0.253800000000     0.068400000000     0.519250000000     0          
O        O      0.392900000000     0.487000000000     0.619625000000     0          
O        O      0.326900000000     0.396900000000     0.644275000000     0          
O        O      0.327600000000     0.512100000000     0.644250000000     0          
O        O      0.185400000000     0.253800000000     0.644250000000     0          
O        O      0.905900000000     0.392900000000     0.744625000000     0          
O        O      0.930000000000     0.326900000000     0.519275000000     0          
O        O      0.815500000000     0.327600000000     0.519250000000     0          
O        O      0.931600000000     0.185400000000     0.519250000000     0          
O        O      0.513000000000     0.905900000000     0.619625000000     0          
O        O      0.603100000000     0.930000000000     0.644275000000     0          
O        O      0.487900000000     0.815500000000     0.644250000000     0          
O        O      0.746200000000     0.931600000000     0.644250000000     0          
O        O      0.607100000000     0.513000000000     0.744625000000     0          
O        O      0.673100000000     0.603100000000     0.519275000000     0          
O        O      0.672400000000     0.487900000000     0.519250000000     0          
O        O      0.814600000000     0.746200000000     0.519250000000     0          
O        O      0.094100000000     0.607100000000     0.619625000000     0          
O        O      0.070000000000     0.673100000000     0.644275000000     0          
O        O      0.184500000000     0.672400000000     0.644250000000     0          
O        O      0.068400000000     0.814600000000     0.644250000000     0          
O        O      0.000000000000     0.417700000000     0.875000000000     0          
O        O      0.094100000000     0.487000000000     0.869625000000     0          
O        O      0.070000000000     0.396900000000     0.894275000000     0          
O        O      0.056200000000     0.414000000000     0.812500000000     0          
O        O      0.184500000000     0.512100000000     0.894250000000     0          
O        O      0.248600000000     0.497200000000     0.937500000000     0          
O        O      0.153800000000     0.428800000000     0.937500000000     0          
O        O      0.167100000000     0.526600000000     0.812500000000     0          
O        O      0.162100000000     0.581000000000     0.876125000000     0          
O        O      0.000000000000     0.162600000000     0.875000000000     0          
O        O      0.056000000000     0.222900000000     0.812500000000     0          
O        O      0.094500000000     0.189100000000     0.870300000000     0          
O        O      0.068400000000     0.253800000000     0.894250000000     0          
O        O      0.086400000000     0.333900000000     0.937500000000     0          
O        O      0.152300000000     0.304600000000     0.937500000000     0          
O        O      0.582300000000     0.000000000000     0.750000000000     0          
O        O      0.607100000000     0.094100000000     0.994625000000     0          
O        O      0.673100000000     0.070000000000     0.769275000000     0          
O        O      0.642200000000     0.056200000000     0.937500000000     0          
O        O      0.672400000000     0.184500000000     0.769250000000     0          
O        O      0.751400000000     0.248600000000     0.812500000000     0          
O        O      0.725000000000     0.153800000000     0.812500000000     0          
O        O      0.640500000000     0.167100000000     0.937500000000     0          
O        O      0.581100000000     0.162100000000     0.751125000000     0          
O        O      0.837400000000     0.000000000000     0.750000000000     0          
O        O      0.833100000000     0.056000000000     0.937500000000     0          
O        O      0.905400000000     0.094500000000     0.995300000000     0          
O        O      0.814600000000     0.068400000000     0.769250000000     0          
O        O      0.752500000000     0.086400000000     0.812500000000     0          
O        O      0.847700000000     0.152300000000     0.812500000000     0          
O        O      0.582300000000     0.582300000000     0.875000000000     0          
O        O      0.513000000000     0.607100000000     0.869625000000     0          
O        O      0.603100000000     0.673100000000     0.894275000000     0          
O        O      0.586000000000     0.642200000000     0.812500000000     0          
O        O      0.487900000000     0.672400000000     0.894250000000     0          
O        O      0.502800000000     0.751400000000     0.937500000000     0          
O        O      0.571200000000     0.725000000000     0.937500000000     0          
O        O      0.473400000000     0.640500000000     0.812500000000     0          
O        O      0.419000000000     0.581100000000     0.876125000000     0          
O        O      0.837400000000     0.837400000000     0.875000000000     0          
O        O      0.777100000000     0.833100000000     0.812500000000     0          
O        O      0.810900000000     0.905400000000     0.870300000000     0          
O        O      0.746200000000     0.814600000000     0.894250000000     0          
O        O      0.666100000000     0.752500000000     0.937500000000     0          
O        O      0.695400000000     0.847700000000     0.937500000000     0          
O        O      0.000000000000     0.582300000000     0.750000000000     0          
O        O      0.905900000000     0.513000000000     0.994625000000     0          
O        O      0.930000000000     0.603100000000     0.769275000000     0          
O        O      0.943800000000     0.586000000000     0.937500000000     0          
O        O      0.815500000000     0.487900000000     0.769250000000     0          
O        O      0.751400000000     0.502800000000     0.812500000000     0          
O        O      0.846200000000     0.571200000000     0.812500000000     0          
O        O      0.832900000000     0.473400000000     0.937500000000     0          
O        O      0.837900000000     0.419000000000     0.751125000000     0          
O        O      0.000000000000     0.837400000000     0.750000000000     0          
O        O      0.944000000000     0.777100000000     0.937500000000     0          
O        O      0.905500000000     0.810900000000     0.995300000000     0          
O        O      0.931600000000     0.746200000000     0.769250000000     0          
O        O      0.913600000000     0.666100000000     0.812500000000     0          
O        O      0.847700000000     0.695400000000     0.812500000000     0          
O        O      0.417700000000     0.000000000000     0.875000000000     0          
O        O      0.392900000000     0.905900000000     0.869625000000     0          
O        O      0.326900000000     0.930000000000     0.894275000000     0          
O        O      0.357800000000     0.943800000000     0.812500000000     0          
O        O      0.327600000000     0.815500000000     0.894250000000     0          
O        O      0.248600000000     0.751400000000     0.937500000000     0          
O        O      0.275000000000     0.846200000000     0.937500000000     0          
O        O      0.359500000000     0.832900000000     0.812500000000     0          
O        O      0.418900000000     0.837900000000     0.876125000000     0          
O        O      0.162600000000     0.000000000000     0.875000000000     0          
O        O      0.166900000000     0.944000000000     0.812500000000     0          
O        O      0.094600000000     0.905500000000     0.870300000000     0          
O        O      0.185400000000     0.931600000000     0.894250000000     0          
O        O      0.247500000000     0.913600000000     0.937500000000     0          
O        O      0.152300000000     0.847700000000     0.937500000000     0          
O        O      0.417700000000     0.417700000000     0.750000000000     0          
O        O      0.487000000000     0.392900000000     0.994625000000     0          
O        O      0.396900000000     0.326900000000     0.769275000000     0          
O        O      0.414000000000     0.357800000000     0.937500000000     0          
O        O      0.512100000000     0.327600000000     0.769250000000     0          
O        O      0.497200000000     0.248600000000     0.812500000000     0          
O        O      0.428800000000     0.275000000000     0.812500000000     0          
O        O      0.526600000000     0.359500000000     0.937500000000     0          
O        O      0.581000000000     0.418900000000     0.751125000000     0          
O        O      0.162600000000     0.162600000000     0.750000000000     0          
O        O      0.222900000000     0.166900000000     0.937500000000     0          
O        O      0.189100000000     0.094600000000     0.995300000000     0          
O        O      0.253800000000     0.185400000000     0.769250000000     0          
O        O      0.333900000000     0.247500000000     0.812500000000     0          
O        O      0.304600000000     0.152300000000     0.812500000000     0          
O        O      0.513000000000     0.905900000000     0.755375000000     0          
O        O      0.603100000000     0.930000000000     0.980725000000     0          
O        O      0.586000000000     0.943800000000     0.812500000000     0          
O        O      0.487900000000     0.815500000000     0.980750000000     0          
O        O      0.571200000000     0.846200000000     0.937500000000     0          
O        O      0.473400000000     0.832900000000     0.812500000000     0          
O        O      0.419000000000     0.837900000000     0.998875000000     0          
O        O      0.777100000000     0.944000000000     0.812500000000     0          
O        O      0.810900000000     0.905500000000     0.754700000000     0          
O        O      0.746200000000     0.931600000000     0.980750000000     0          
O        O      0.666100000000     0.913600000000     0.937500000000     0          
O        O      0.607100000000     0.513000000000     0.880375000000     0          
O        O      0.673100000000     0.603100000000     0.855725000000     0          
O        O      0.642200000000     0.586000000000     0.937500000000     0          
O        O      0.672400000000     0.487900000000     0.855750000000     0          
O        O      0.725000000000     0.571200000000     0.812500000000     0          
O        O      0.640500000000     0.473400000000     0.937500000000     0          
O        O      0.581100000000     0.419000000000     0.873875000000     0          
O        O      0.833100000000     0.777100000000     0.937500000000     0          
O        O      0.905400000000     0.810900000000     0.879700000000     0          
O        O      0.814600000000     0.746200000000     0.855750000000     0          
O        O      0.752500000000     0.666100000000     0.812500000000     0          
O        O      0.094100000000     0.607100000000     0.755375000000     0          
O        O      0.070000000000     0.673100000000     0.980725000000     0          
O        O      0.056200000000     0.642200000000     0.812500000000     0          
O        O      0.184500000000     0.672400000000     0.980750000000     0          
O        O      0.153800000000     0.725000000000     0.937500000000     0          
O        O      0.167100000000     0.640500000000     0.812500000000     0          
O        O      0.162100000000     0.581100000000     0.998875000000     0          
O        O      0.056000000000     0.833100000000     0.812500000000     0          
O        O      0.094500000000     0.905400000000     0.754700000000     0          
O        O      0.068400000000     0.814600000000     0.980750000000     0          
O        O      0.086400000000     0.752500000000     0.937500000000     0          
O        O      0.487000000000     0.094100000000     0.880375000000     0          
O        O      0.396900000000     0.070000000000     0.855725000000     0          
O        O      0.414000000000     0.056200000000     0.937500000000     0          
O        O      0.512100000000     0.184500000000     0.855750000000     0          
O        O      0.428800000000     0.153800000000     0.812500000000     0          
O        O      0.526600000000     0.167100000000     0.937500000000     0          
O        O      0.581000000000     0.162100000000     0.873875000000     0          
O        O      0.222900000000     0.056000000000     0.937500000000     0          
O        O      0.189100000000     0.094500000000     0.879700000000     0          
O        O      0.253800000000     0.068400000000     0.855750000000     0          
O        O      0.333900000000     0.086400000000     0.812500000000     0          
O        O      0.392900000000     0.487000000000     0.755375000000     0          
O        O      0.326900000000     0.396900000000     0.980725000000     0          
O        O      0.357800000000     0.414000000000     0.812500000000     0          
O        O      0.327600000000     0.512100000000     0.980750000000     0          
O        O      0.275000000000     0.428800000000     0.937500000000     0          
O        O      0.359500000000     0.526600000000     0.812500000000     0          
O        O      0.418900000000     0.581000000000     0.998875000000     0          
O        O      0.166900000000     0.222900000000     0.812500000000     0          
O        O      0.094600000000     0.189100000000     0.754700000000     0          
O        O      0.185400000000     0.253800000000     0.980750000000     0          
O        O      0.247500000000     0.333900000000     0.937500000000     0          
O        O      0.905900000000     0.392900000000     0.880375000000     0          
O        O      0.930000000000     0.326900000000     0.855725000000     0          
O        O      0.943800000000     0.357800000000     0.937500000000     0          
O        O      0.815500000000     0.327600000000     0.855750000000     0          
O        O      0.846200000000     0.275000000000     0.812500000000     0          
O        O      0.832900000000     0.359500000000     0.937500000000     0          
O        O      0.837900000000     0.418900000000     0.873875000000     0          
O        O      0.944000000000     0.166900000000     0.937500000000     0          
O        O      0.905500000000     0.094600000000     0.879700000000     0          
O        O      0.931600000000     0.185400000000     0.855750000000     0          
O        O      0.913600000000     0.247500000000     0.812500000000     0          
O        O      0.000000000000     0.582300000000     0.875000000000     0          
O        O      0.905900000000     0.513000000000     0.880375000000     0          
O        O      0.930000000000     0.603100000000     0.855725000000     0          
O        O      0.815500000000     0.487900000000     0.855750000000     0          
O        O      0.000000000000     0.837400000000     0.875000000000     0          
O        O      0.931600000000     0.746200000000     0.855750000000     0          
O        O      0.417700000000     0.000000000000     0.750000000000     0          
O        O      0.392900000000     0.905900000000     0.755375000000     0          
O        O      0.326900000000     0.930000000000     0.980725000000     0          
O        O      0.327600000000     0.815500000000     0.980750000000     0          
O        O      0.162600000000     0.000000000000     0.750000000000     0          
O        O      0.185400000000     0.931600000000     0.980750000000     0          
O        O      0.417700000000     0.417700000000     0.875000000000     0          
O        O      0.487000000000     0.392900000000     0.880375000000     0          
O        O      0.396900000000     0.326900000000     0.855725000000     0          
O        O      0.512100000000     0.327600000000     0.855750000000     0          
O        O      0.162600000000     0.162600000000     0.875000000000     0          
O        O      0.253800000000     0.185400000000     0.855750000000     0          
O        O      0.000000000000     0.417700000000     0.750000000000     0          
O        O      0.094100000000     0.487000000000     0.755375000000     0          
O        O      0.070000000000     0.396900000000     0.980725000000     0          
O        O      0.184500000000     0.512100000000     0.980750000000     0          
O        O      0.000000000000     0.162600000000     0.750000000000     0          
O        O      0.068400000000     0.253800000000     0.980750000000     0          
O        O      0.582300000000     0.000000000000     0.875000000000     0          
O        O      0.607100000000     0.094100000000     0.880375000000     0          
O        O      0.673100000000     0.070000000000     0.855725000000     0          
O        O      0.672400000000     0.184500000000     0.855750000000     0          
O        O      0.837400000000     0.000000000000     0.875000000000     0          
O        O      0.814600000000     0.068400000000     0.855750000000     0          
O        O      0.582300000000     0.582300000000     0.750000000000     0          
O        O      0.513000000000     0.607100000000     0.755375000000     0          
O        O      0.603100000000     0.673100000000     0.980725000000     0          
O        O      0.487900000000     0.672400000000     0.980750000000     0          
O        O      0.837400000000     0.837400000000     0.750000000000     0          
O        O      0.746200000000     0.814600000000     0.980750000000     0          
O        O      0.487000000000     0.094100000000     0.994625000000     0          
O        O      0.396900000000     0.070000000000     0.769275000000     0          
O        O      0.512100000000     0.184500000000     0.769250000000     0          
O        O      0.253800000000     0.068400000000     0.769250000000     0          
O        O      0.392900000000     0.487000000000     0.869625000000     0          
O        O      0.326900000000     0.396900000000     0.894275000000     0          
O        O      0.327600000000     0.512100000000     0.894250000000     0          
O        O      0.185400000000     0.253800000000     0.894250000000     0          
O        O      0.905900000000     0.392900000000     0.994625000000     0          
O        O      0.930000000000     0.326900000000     0.769275000000     0          
O        O      0.815500000000     0.327600000000     0.769250000000     0          
O        O      0.931600000000     0.185400000000     0.769250000000     0          
O        O      0.513000000000     0.905900000000     0.869625000000     0          
O        O      0.603100000000     0.930000000000     0.894275000000     0          
O        O      0.487900000000     0.815500000000     0.894250000000     0          
O        O      0.746200000000     0.931600000000     0.894250000000     0          
O        O      0.607100000000     0.513000000000     0.994625000000     0          
O        O      0.673100000000     0.603100000000     0.769275000000     0          
O        O      0.672400000000     0.487900000000     0.769250000000     0          
O        O      0.814600000000     0.746200000000     0.769250000000     0          
O        O      0.094100000000     0.607100000000     0.869625000000     0          
O        O      0.070000000000     0.673100000000     0.894275000000     0          
O        O      0.184500000000     0.672400000000     0.894250000000     0          
O        O      0.068400000000     0.814600000000     0.894250000000     0          


