data_zeolite

_audit_creation_method RASPA-1.0
_audit_creation_date 2021-6-7
_audit_author_name ''

_cell_length_a    22.585
_cell_length_b    13.568
_cell_length_c    6.971
_cell_angle_alpha 90
_cell_angle_beta  99.016
_cell_angle_gamma 90
_cell_volume      33756.1

_symmetry_cell_setting          monoclinic
_symmetry_space_group_name_Hall 'P 1'
_symmetry_space_group_name_H-M  'P 1'
_symmetry_Int_Tables_number     1

_symmetry_equiv_pos_as_xyz 'x,y,z'

loop_
_atom_site_label
_atom_site_type_symbol
_atom_site_fract_x
_atom_site_fract_y
_atom_site_fract_z
_atom_site_charge
T        Si     0.417200000000     0.101400000000     0.048275000000     0          
T        Si     0.465550000000     0.443200000000     0.245550000000     0          
T        Si     0.371400000000     0.443500000000     0.218700000000     0          
T        Si     0.419400000000     0.056200000000     0.151150000000     0          
T        Si     0.082800000000     0.101400000000     0.201725000000     0          
T        Si     0.034450000000     0.443200000000     0.004450000000     0          
T        Si     0.128600000000     0.443500000000     0.031300000000     0          
T        Si     0.080600000000     0.056200000000     0.098850000000     0          
T        Si     0.082800000000     0.398600000000     0.201725000000     0          
T        Si     0.034450000000     0.056800000000     0.004450000000     0          
T        Si     0.128600000000     0.056500000000     0.031300000000     0          
T        Si     0.080600000000     0.443800000000     0.098850000000     0          
T        Si     0.417200000000     0.398600000000     0.048275000000     0          
T        Si     0.465550000000     0.056800000000     0.245550000000     0          
T        Si     0.371400000000     0.056500000000     0.218700000000     0          
T        Si     0.419400000000     0.443800000000     0.151150000000     0          
T        Si     0.167200000000     0.351400000000     0.048275000000     0          
T        Si     0.215550000000     0.193200000000     0.245550000000     0          
T        Si     0.121400000000     0.193500000000     0.218700000000     0          
T        Si     0.169400000000     0.306200000000     0.151150000000     0          
T        Si     0.332800000000     0.351400000000     0.201725000000     0          
T        Si     0.284450000000     0.193200000000     0.004450000000     0          
T        Si     0.378600000000     0.193500000000     0.031300000000     0          
T        Si     0.330600000000     0.306200000000     0.098850000000     0          
T        Si     0.332800000000     0.148600000000     0.201725000000     0          
T        Si     0.284450000000     0.306800000000     0.004450000000     0          
T        Si     0.378600000000     0.306500000000     0.031300000000     0          
T        Si     0.330600000000     0.193800000000     0.098850000000     0          
T        Si     0.167200000000     0.148600000000     0.048275000000     0          
T        Si     0.215550000000     0.306800000000     0.245550000000     0          
T        Si     0.121400000000     0.306500000000     0.218700000000     0          
T        Si     0.169400000000     0.193800000000     0.151150000000     0          
T        Si     0.417200000000     0.101400000000     0.298275000000     0          
T        Si     0.465550000000     0.443200000000     0.495550000000     0          
T        Si     0.371400000000     0.443500000000     0.468700000000     0          
T        Si     0.419400000000     0.056200000000     0.401150000000     0          
T        Si     0.082800000000     0.101400000000     0.451725000000     0          
T        Si     0.034450000000     0.443200000000     0.254450000000     0          
T        Si     0.128600000000     0.443500000000     0.281300000000     0          
T        Si     0.080600000000     0.056200000000     0.348850000000     0          
T        Si     0.082800000000     0.398600000000     0.451725000000     0          
T        Si     0.034450000000     0.056800000000     0.254450000000     0          
T        Si     0.128600000000     0.056500000000     0.281300000000     0          
T        Si     0.080600000000     0.443800000000     0.348850000000     0          
T        Si     0.417200000000     0.398600000000     0.298275000000     0          
T        Si     0.465550000000     0.056800000000     0.495550000000     0          
T        Si     0.371400000000     0.056500000000     0.468700000000     0          
T        Si     0.419400000000     0.443800000000     0.401150000000     0          
T        Si     0.167200000000     0.351400000000     0.298275000000     0          
T        Si     0.215550000000     0.193200000000     0.495550000000     0          
T        Si     0.121400000000     0.193500000000     0.468700000000     0          
T        Si     0.169400000000     0.306200000000     0.401150000000     0          
T        Si     0.332800000000     0.351400000000     0.451725000000     0          
T        Si     0.284450000000     0.193200000000     0.254450000000     0          
T        Si     0.378600000000     0.193500000000     0.281300000000     0          
T        Si     0.330600000000     0.306200000000     0.348850000000     0          
T        Si     0.332800000000     0.148600000000     0.451725000000     0          
T        Si     0.284450000000     0.306800000000     0.254450000000     0          
T        Si     0.378600000000     0.306500000000     0.281300000000     0          
T        Si     0.330600000000     0.193800000000     0.348850000000     0          
T        Si     0.167200000000     0.148600000000     0.298275000000     0          
T        Si     0.215550000000     0.306800000000     0.495550000000     0          
T        Si     0.121400000000     0.306500000000     0.468700000000     0          
T        Si     0.169400000000     0.193800000000     0.401150000000     0          
T        Si     0.417200000000     0.101400000000     0.548275000000     0          
T        Si     0.465550000000     0.443200000000     0.745550000000     0          
T        Si     0.371400000000     0.443500000000     0.718700000000     0          
T        Si     0.419400000000     0.056200000000     0.651150000000     0          
T        Si     0.082800000000     0.101400000000     0.701725000000     0          
T        Si     0.034450000000     0.443200000000     0.504450000000     0          
T        Si     0.128600000000     0.443500000000     0.531300000000     0          
T        Si     0.080600000000     0.056200000000     0.598850000000     0          
T        Si     0.082800000000     0.398600000000     0.701725000000     0          
T        Si     0.034450000000     0.056800000000     0.504450000000     0          
T        Si     0.128600000000     0.056500000000     0.531300000000     0          
T        Si     0.080600000000     0.443800000000     0.598850000000     0          
T        Si     0.417200000000     0.398600000000     0.548275000000     0          
T        Si     0.465550000000     0.056800000000     0.745550000000     0          
T        Si     0.371400000000     0.056500000000     0.718700000000     0          
T        Si     0.419400000000     0.443800000000     0.651150000000     0          
T        Si     0.167200000000     0.351400000000     0.548275000000     0          
T        Si     0.215550000000     0.193200000000     0.745550000000     0          
T        Si     0.121400000000     0.193500000000     0.718700000000     0          
T        Si     0.169400000000     0.306200000000     0.651150000000     0          
T        Si     0.332800000000     0.351400000000     0.701725000000     0          
T        Si     0.284450000000     0.193200000000     0.504450000000     0          
T        Si     0.378600000000     0.193500000000     0.531300000000     0          
T        Si     0.330600000000     0.306200000000     0.598850000000     0          
T        Si     0.332800000000     0.148600000000     0.701725000000     0          
T        Si     0.284450000000     0.306800000000     0.504450000000     0          
T        Si     0.378600000000     0.306500000000     0.531300000000     0          
T        Si     0.330600000000     0.193800000000     0.598850000000     0          
T        Si     0.167200000000     0.148600000000     0.548275000000     0          
T        Si     0.215550000000     0.306800000000     0.745550000000     0          
T        Si     0.121400000000     0.306500000000     0.718700000000     0          
T        Si     0.169400000000     0.193800000000     0.651150000000     0          
T        Si     0.417200000000     0.101400000000     0.798275000000     0          
T        Si     0.465550000000     0.443200000000     0.995550000000     0          
T        Si     0.371400000000     0.443500000000     0.968700000000     0          
T        Si     0.419400000000     0.056200000000     0.901150000000     0          
T        Si     0.082800000000     0.101400000000     0.951725000000     0          
T        Si     0.034450000000     0.443200000000     0.754450000000     0          
T        Si     0.128600000000     0.443500000000     0.781300000000     0          
T        Si     0.080600000000     0.056200000000     0.848850000000     0          
T        Si     0.082800000000     0.398600000000     0.951725000000     0          
T        Si     0.034450000000     0.056800000000     0.754450000000     0          
T        Si     0.128600000000     0.056500000000     0.781300000000     0          
T        Si     0.080600000000     0.443800000000     0.848850000000     0          
T        Si     0.417200000000     0.398600000000     0.798275000000     0          
T        Si     0.465550000000     0.056800000000     0.995550000000     0          
T        Si     0.371400000000     0.056500000000     0.968700000000     0          
T        Si     0.419400000000     0.443800000000     0.901150000000     0          
T        Si     0.167200000000     0.351400000000     0.798275000000     0          
T        Si     0.215550000000     0.193200000000     0.995550000000     0          
T        Si     0.121400000000     0.193500000000     0.968700000000     0          
T        Si     0.169400000000     0.306200000000     0.901150000000     0          
T        Si     0.332800000000     0.351400000000     0.951725000000     0          
T        Si     0.284450000000     0.193200000000     0.754450000000     0          
T        Si     0.378600000000     0.193500000000     0.781300000000     0          
T        Si     0.330600000000     0.306200000000     0.848850000000     0          
T        Si     0.332800000000     0.148600000000     0.951725000000     0          
T        Si     0.284450000000     0.306800000000     0.754450000000     0          
T        Si     0.378600000000     0.306500000000     0.781300000000     0          
T        Si     0.330600000000     0.193800000000     0.848850000000     0          
T        Si     0.167200000000     0.148600000000     0.798275000000     0          
T        Si     0.215550000000     0.306800000000     0.995550000000     0          
T        Si     0.121400000000     0.306500000000     0.968700000000     0          
T        Si     0.169400000000     0.193800000000     0.901150000000     0          
T        Si     0.417200000000     0.601400000000     0.048275000000     0          
T        Si     0.465550000000     0.943200000000     0.245550000000     0          
T        Si     0.371400000000     0.943500000000     0.218700000000     0          
T        Si     0.419400000000     0.556200000000     0.151150000000     0          
T        Si     0.082800000000     0.601400000000     0.201725000000     0          
T        Si     0.034450000000     0.943200000000     0.004450000000     0          
T        Si     0.128600000000     0.943500000000     0.031300000000     0          
T        Si     0.080600000000     0.556200000000     0.098850000000     0          
T        Si     0.082800000000     0.898600000000     0.201725000000     0          
T        Si     0.034450000000     0.556800000000     0.004450000000     0          
T        Si     0.128600000000     0.556500000000     0.031300000000     0          
T        Si     0.080600000000     0.943800000000     0.098850000000     0          
T        Si     0.417200000000     0.898600000000     0.048275000000     0          
T        Si     0.465550000000     0.556800000000     0.245550000000     0          
T        Si     0.371400000000     0.556500000000     0.218700000000     0          
T        Si     0.419400000000     0.943800000000     0.151150000000     0          
T        Si     0.167200000000     0.851400000000     0.048275000000     0          
T        Si     0.215550000000     0.693200000000     0.245550000000     0          
T        Si     0.121400000000     0.693500000000     0.218700000000     0          
T        Si     0.169400000000     0.806200000000     0.151150000000     0          
T        Si     0.332800000000     0.851400000000     0.201725000000     0          
T        Si     0.284450000000     0.693200000000     0.004450000000     0          
T        Si     0.378600000000     0.693500000000     0.031300000000     0          
T        Si     0.330600000000     0.806200000000     0.098850000000     0          
T        Si     0.332800000000     0.648600000000     0.201725000000     0          
T        Si     0.284450000000     0.806800000000     0.004450000000     0          
T        Si     0.378600000000     0.806500000000     0.031300000000     0          
T        Si     0.330600000000     0.693800000000     0.098850000000     0          
T        Si     0.167200000000     0.648600000000     0.048275000000     0          
T        Si     0.215550000000     0.806800000000     0.245550000000     0          
T        Si     0.121400000000     0.806500000000     0.218700000000     0          
T        Si     0.169400000000     0.693800000000     0.151150000000     0          
T        Si     0.417200000000     0.601400000000     0.298275000000     0          
T        Si     0.465550000000     0.943200000000     0.495550000000     0          
T        Si     0.371400000000     0.943500000000     0.468700000000     0          
T        Si     0.419400000000     0.556200000000     0.401150000000     0          
T        Si     0.082800000000     0.601400000000     0.451725000000     0          
T        Si     0.034450000000     0.943200000000     0.254450000000     0          
T        Si     0.128600000000     0.943500000000     0.281300000000     0          
T        Si     0.080600000000     0.556200000000     0.348850000000     0          
T        Si     0.082800000000     0.898600000000     0.451725000000     0          
T        Si     0.034450000000     0.556800000000     0.254450000000     0          
T        Si     0.128600000000     0.556500000000     0.281300000000     0          
T        Si     0.080600000000     0.943800000000     0.348850000000     0          
T        Si     0.417200000000     0.898600000000     0.298275000000     0          
T        Si     0.465550000000     0.556800000000     0.495550000000     0          
T        Si     0.371400000000     0.556500000000     0.468700000000     0          
T        Si     0.419400000000     0.943800000000     0.401150000000     0          
T        Si     0.167200000000     0.851400000000     0.298275000000     0          
T        Si     0.215550000000     0.693200000000     0.495550000000     0          
T        Si     0.121400000000     0.693500000000     0.468700000000     0          
T        Si     0.169400000000     0.806200000000     0.401150000000     0          
T        Si     0.332800000000     0.851400000000     0.451725000000     0          
T        Si     0.284450000000     0.693200000000     0.254450000000     0          
T        Si     0.378600000000     0.693500000000     0.281300000000     0          
T        Si     0.330600000000     0.806200000000     0.348850000000     0          
T        Si     0.332800000000     0.648600000000     0.451725000000     0          
T        Si     0.284450000000     0.806800000000     0.254450000000     0          
T        Si     0.378600000000     0.806500000000     0.281300000000     0          
T        Si     0.330600000000     0.693800000000     0.348850000000     0          
T        Si     0.167200000000     0.648600000000     0.298275000000     0          
T        Si     0.215550000000     0.806800000000     0.495550000000     0          
T        Si     0.121400000000     0.806500000000     0.468700000000     0          
T        Si     0.169400000000     0.693800000000     0.401150000000     0          
T        Si     0.417200000000     0.601400000000     0.548275000000     0          
T        Si     0.465550000000     0.943200000000     0.745550000000     0          
T        Si     0.371400000000     0.943500000000     0.718700000000     0          
T        Si     0.419400000000     0.556200000000     0.651150000000     0          
T        Si     0.082800000000     0.601400000000     0.701725000000     0          
T        Si     0.034450000000     0.943200000000     0.504450000000     0          
T        Si     0.128600000000     0.943500000000     0.531300000000     0          
T        Si     0.080600000000     0.556200000000     0.598850000000     0          
T        Si     0.082800000000     0.898600000000     0.701725000000     0          
T        Si     0.034450000000     0.556800000000     0.504450000000     0          
T        Si     0.128600000000     0.556500000000     0.531300000000     0          
T        Si     0.080600000000     0.943800000000     0.598850000000     0          
T        Si     0.417200000000     0.898600000000     0.548275000000     0          
T        Si     0.465550000000     0.556800000000     0.745550000000     0          
T        Si     0.371400000000     0.556500000000     0.718700000000     0          
T        Si     0.419400000000     0.943800000000     0.651150000000     0          
T        Si     0.167200000000     0.851400000000     0.548275000000     0          
T        Si     0.215550000000     0.693200000000     0.745550000000     0          
T        Si     0.121400000000     0.693500000000     0.718700000000     0          
T        Si     0.169400000000     0.806200000000     0.651150000000     0          
T        Si     0.332800000000     0.851400000000     0.701725000000     0          
T        Si     0.284450000000     0.693200000000     0.504450000000     0          
T        Si     0.378600000000     0.693500000000     0.531300000000     0          
T        Si     0.330600000000     0.806200000000     0.598850000000     0          
T        Si     0.332800000000     0.648600000000     0.701725000000     0          
T        Si     0.284450000000     0.806800000000     0.504450000000     0          
T        Si     0.378600000000     0.806500000000     0.531300000000     0          
T        Si     0.330600000000     0.693800000000     0.598850000000     0          
T        Si     0.167200000000     0.648600000000     0.548275000000     0          
T        Si     0.215550000000     0.806800000000     0.745550000000     0          
T        Si     0.121400000000     0.806500000000     0.718700000000     0          
T        Si     0.169400000000     0.693800000000     0.651150000000     0          
T        Si     0.417200000000     0.601400000000     0.798275000000     0          
T        Si     0.465550000000     0.943200000000     0.995550000000     0          
T        Si     0.371400000000     0.943500000000     0.968700000000     0          
T        Si     0.419400000000     0.556200000000     0.901150000000     0          
T        Si     0.082800000000     0.601400000000     0.951725000000     0          
T        Si     0.034450000000     0.943200000000     0.754450000000     0          
T        Si     0.128600000000     0.943500000000     0.781300000000     0          
T        Si     0.080600000000     0.556200000000     0.848850000000     0          
T        Si     0.082800000000     0.898600000000     0.951725000000     0          
T        Si     0.034450000000     0.556800000000     0.754450000000     0          
T        Si     0.128600000000     0.556500000000     0.781300000000     0          
T        Si     0.080600000000     0.943800000000     0.848850000000     0          
T        Si     0.417200000000     0.898600000000     0.798275000000     0          
T        Si     0.465550000000     0.556800000000     0.995550000000     0          
T        Si     0.371400000000     0.556500000000     0.968700000000     0          
T        Si     0.419400000000     0.943800000000     0.901150000000     0          
T        Si     0.167200000000     0.851400000000     0.798275000000     0          
T        Si     0.215550000000     0.693200000000     0.995550000000     0          
T        Si     0.121400000000     0.693500000000     0.968700000000     0          
T        Si     0.169400000000     0.806200000000     0.901150000000     0          
T        Si     0.332800000000     0.851400000000     0.951725000000     0          
T        Si     0.284450000000     0.693200000000     0.754450000000     0          
T        Si     0.378600000000     0.693500000000     0.781300000000     0          
T        Si     0.330600000000     0.806200000000     0.848850000000     0          
T        Si     0.332800000000     0.648600000000     0.951725000000     0          
T        Si     0.284450000000     0.806800000000     0.754450000000     0          
T        Si     0.378600000000     0.806500000000     0.781300000000     0          
T        Si     0.330600000000     0.693800000000     0.848850000000     0          
T        Si     0.167200000000     0.648600000000     0.798275000000     0          
T        Si     0.215550000000     0.806800000000     0.995550000000     0          
T        Si     0.121400000000     0.806500000000     0.968700000000     0          
T        Si     0.169400000000     0.693800000000     0.901150000000     0          
T        Si     0.917200000000     0.101400000000     0.048275000000     0          
T        Si     0.965550000000     0.443200000000     0.245550000000     0          
T        Si     0.871400000000     0.443500000000     0.218700000000     0          
T        Si     0.919400000000     0.056200000000     0.151150000000     0          
T        Si     0.582800000000     0.101400000000     0.201725000000     0          
T        Si     0.534450000000     0.443200000000     0.004450000000     0          
T        Si     0.628600000000     0.443500000000     0.031300000000     0          
T        Si     0.580600000000     0.056200000000     0.098850000000     0          
T        Si     0.582800000000     0.398600000000     0.201725000000     0          
T        Si     0.534450000000     0.056800000000     0.004450000000     0          
T        Si     0.628600000000     0.056500000000     0.031300000000     0          
T        Si     0.580600000000     0.443800000000     0.098850000000     0          
T        Si     0.917200000000     0.398600000000     0.048275000000     0          
T        Si     0.965550000000     0.056800000000     0.245550000000     0          
T        Si     0.871400000000     0.056500000000     0.218700000000     0          
T        Si     0.919400000000     0.443800000000     0.151150000000     0          
T        Si     0.667200000000     0.351400000000     0.048275000000     0          
T        Si     0.715550000000     0.193200000000     0.245550000000     0          
T        Si     0.621400000000     0.193500000000     0.218700000000     0          
T        Si     0.669400000000     0.306200000000     0.151150000000     0          
T        Si     0.832800000000     0.351400000000     0.201725000000     0          
T        Si     0.784450000000     0.193200000000     0.004450000000     0          
T        Si     0.878600000000     0.193500000000     0.031300000000     0          
T        Si     0.830600000000     0.306200000000     0.098850000000     0          
T        Si     0.832800000000     0.148600000000     0.201725000000     0          
T        Si     0.784450000000     0.306800000000     0.004450000000     0          
T        Si     0.878600000000     0.306500000000     0.031300000000     0          
T        Si     0.830600000000     0.193800000000     0.098850000000     0          
T        Si     0.667200000000     0.148600000000     0.048275000000     0          
T        Si     0.715550000000     0.306800000000     0.245550000000     0          
T        Si     0.621400000000     0.306500000000     0.218700000000     0          
T        Si     0.669400000000     0.193800000000     0.151150000000     0          
T        Si     0.917200000000     0.101400000000     0.298275000000     0          
T        Si     0.965550000000     0.443200000000     0.495550000000     0          
T        Si     0.871400000000     0.443500000000     0.468700000000     0          
T        Si     0.919400000000     0.056200000000     0.401150000000     0          
T        Si     0.582800000000     0.101400000000     0.451725000000     0          
T        Si     0.534450000000     0.443200000000     0.254450000000     0          
T        Si     0.628600000000     0.443500000000     0.281300000000     0          
T        Si     0.580600000000     0.056200000000     0.348850000000     0          
T        Si     0.582800000000     0.398600000000     0.451725000000     0          
T        Si     0.534450000000     0.056800000000     0.254450000000     0          
T        Si     0.628600000000     0.056500000000     0.281300000000     0          
T        Si     0.580600000000     0.443800000000     0.348850000000     0          
T        Si     0.917200000000     0.398600000000     0.298275000000     0          
T        Si     0.965550000000     0.056800000000     0.495550000000     0          
T        Si     0.871400000000     0.056500000000     0.468700000000     0          
T        Si     0.919400000000     0.443800000000     0.401150000000     0          
T        Si     0.667200000000     0.351400000000     0.298275000000     0          
T        Si     0.715550000000     0.193200000000     0.495550000000     0          
T        Si     0.621400000000     0.193500000000     0.468700000000     0          
T        Si     0.669400000000     0.306200000000     0.401150000000     0          
T        Si     0.832800000000     0.351400000000     0.451725000000     0          
T        Si     0.784450000000     0.193200000000     0.254450000000     0          
T        Si     0.878600000000     0.193500000000     0.281300000000     0          
T        Si     0.830600000000     0.306200000000     0.348850000000     0          
T        Si     0.832800000000     0.148600000000     0.451725000000     0          
T        Si     0.784450000000     0.306800000000     0.254450000000     0          
T        Si     0.878600000000     0.306500000000     0.281300000000     0          
T        Si     0.830600000000     0.193800000000     0.348850000000     0          
T        Si     0.667200000000     0.148600000000     0.298275000000     0          
T        Si     0.715550000000     0.306800000000     0.495550000000     0          
T        Si     0.621400000000     0.306500000000     0.468700000000     0          
T        Si     0.669400000000     0.193800000000     0.401150000000     0          
T        Si     0.917200000000     0.101400000000     0.548275000000     0          
T        Si     0.965550000000     0.443200000000     0.745550000000     0          
T        Si     0.871400000000     0.443500000000     0.718700000000     0          
T        Si     0.919400000000     0.056200000000     0.651150000000     0          
T        Si     0.582800000000     0.101400000000     0.701725000000     0          
T        Si     0.534450000000     0.443200000000     0.504450000000     0          
T        Si     0.628600000000     0.443500000000     0.531300000000     0          
T        Si     0.580600000000     0.056200000000     0.598850000000     0          
T        Si     0.582800000000     0.398600000000     0.701725000000     0          
T        Si     0.534450000000     0.056800000000     0.504450000000     0          
T        Si     0.628600000000     0.056500000000     0.531300000000     0          
T        Si     0.580600000000     0.443800000000     0.598850000000     0          
T        Si     0.917200000000     0.398600000000     0.548275000000     0          
T        Si     0.965550000000     0.056800000000     0.745550000000     0          
T        Si     0.871400000000     0.056500000000     0.718700000000     0          
T        Si     0.919400000000     0.443800000000     0.651150000000     0          
T        Si     0.667200000000     0.351400000000     0.548275000000     0          
T        Si     0.715550000000     0.193200000000     0.745550000000     0          
T        Si     0.621400000000     0.193500000000     0.718700000000     0          
T        Si     0.669400000000     0.306200000000     0.651150000000     0          
T        Si     0.832800000000     0.351400000000     0.701725000000     0          
T        Si     0.784450000000     0.193200000000     0.504450000000     0          
T        Si     0.878600000000     0.193500000000     0.531300000000     0          
T        Si     0.830600000000     0.306200000000     0.598850000000     0          
T        Si     0.832800000000     0.148600000000     0.701725000000     0          
T        Si     0.784450000000     0.306800000000     0.504450000000     0          
T        Si     0.878600000000     0.306500000000     0.531300000000     0          
T        Si     0.830600000000     0.193800000000     0.598850000000     0          
T        Si     0.667200000000     0.148600000000     0.548275000000     0          
T        Si     0.715550000000     0.306800000000     0.745550000000     0          
T        Si     0.621400000000     0.306500000000     0.718700000000     0          
T        Si     0.669400000000     0.193800000000     0.651150000000     0          
T        Si     0.917200000000     0.101400000000     0.798275000000     0          
T        Si     0.965550000000     0.443200000000     0.995550000000     0          
T        Si     0.871400000000     0.443500000000     0.968700000000     0          
T        Si     0.919400000000     0.056200000000     0.901150000000     0          
T        Si     0.582800000000     0.101400000000     0.951725000000     0          
T        Si     0.534450000000     0.443200000000     0.754450000000     0          
T        Si     0.628600000000     0.443500000000     0.781300000000     0          
T        Si     0.580600000000     0.056200000000     0.848850000000     0          
T        Si     0.582800000000     0.398600000000     0.951725000000     0          
T        Si     0.534450000000     0.056800000000     0.754450000000     0          
T        Si     0.628600000000     0.056500000000     0.781300000000     0          
T        Si     0.580600000000     0.443800000000     0.848850000000     0          
T        Si     0.917200000000     0.398600000000     0.798275000000     0          
T        Si     0.965550000000     0.056800000000     0.995550000000     0          
T        Si     0.871400000000     0.056500000000     0.968700000000     0          
T        Si     0.919400000000     0.443800000000     0.901150000000     0          
T        Si     0.667200000000     0.351400000000     0.798275000000     0          
T        Si     0.715550000000     0.193200000000     0.995550000000     0          
T        Si     0.621400000000     0.193500000000     0.968700000000     0          
T        Si     0.669400000000     0.306200000000     0.901150000000     0          
T        Si     0.832800000000     0.351400000000     0.951725000000     0          
T        Si     0.784450000000     0.193200000000     0.754450000000     0          
T        Si     0.878600000000     0.193500000000     0.781300000000     0          
T        Si     0.830600000000     0.306200000000     0.848850000000     0          
T        Si     0.832800000000     0.148600000000     0.951725000000     0          
T        Si     0.784450000000     0.306800000000     0.754450000000     0          
T        Si     0.878600000000     0.306500000000     0.781300000000     0          
T        Si     0.830600000000     0.193800000000     0.848850000000     0          
T        Si     0.667200000000     0.148600000000     0.798275000000     0          
T        Si     0.715550000000     0.306800000000     0.995550000000     0          
T        Si     0.621400000000     0.306500000000     0.968700000000     0          
T        Si     0.669400000000     0.193800000000     0.901150000000     0          
T        Si     0.917200000000     0.601400000000     0.048275000000     0          
T        Si     0.965550000000     0.943200000000     0.245550000000     0          
T        Si     0.871400000000     0.943500000000     0.218700000000     0          
T        Si     0.919400000000     0.556200000000     0.151150000000     0          
T        Si     0.582800000000     0.601400000000     0.201725000000     0          
T        Si     0.534450000000     0.943200000000     0.004450000000     0          
T        Si     0.628600000000     0.943500000000     0.031300000000     0          
T        Si     0.580600000000     0.556200000000     0.098850000000     0          
T        Si     0.582800000000     0.898600000000     0.201725000000     0          
T        Si     0.534450000000     0.556800000000     0.004450000000     0          
T        Si     0.628600000000     0.556500000000     0.031300000000     0          
T        Si     0.580600000000     0.943800000000     0.098850000000     0          
T        Si     0.917200000000     0.898600000000     0.048275000000     0          
T        Si     0.965550000000     0.556800000000     0.245550000000     0          
T        Si     0.871400000000     0.556500000000     0.218700000000     0          
T        Si     0.919400000000     0.943800000000     0.151150000000     0          
T        Si     0.667200000000     0.851400000000     0.048275000000     0          
T        Si     0.715550000000     0.693200000000     0.245550000000     0          
T        Si     0.621400000000     0.693500000000     0.218700000000     0          
T        Si     0.669400000000     0.806200000000     0.151150000000     0          
T        Si     0.832800000000     0.851400000000     0.201725000000     0          
T        Si     0.784450000000     0.693200000000     0.004450000000     0          
T        Si     0.878600000000     0.693500000000     0.031300000000     0          
T        Si     0.830600000000     0.806200000000     0.098850000000     0          
T        Si     0.832800000000     0.648600000000     0.201725000000     0          
T        Si     0.784450000000     0.806800000000     0.004450000000     0          
T        Si     0.878600000000     0.806500000000     0.031300000000     0          
T        Si     0.830600000000     0.693800000000     0.098850000000     0          
T        Si     0.667200000000     0.648600000000     0.048275000000     0          
T        Si     0.715550000000     0.806800000000     0.245550000000     0          
T        Si     0.621400000000     0.806500000000     0.218700000000     0          
T        Si     0.669400000000     0.693800000000     0.151150000000     0          
T        Si     0.917200000000     0.601400000000     0.298275000000     0          
T        Si     0.965550000000     0.943200000000     0.495550000000     0          
T        Si     0.871400000000     0.943500000000     0.468700000000     0          
T        Si     0.919400000000     0.556200000000     0.401150000000     0          
T        Si     0.582800000000     0.601400000000     0.451725000000     0          
T        Si     0.534450000000     0.943200000000     0.254450000000     0          
T        Si     0.628600000000     0.943500000000     0.281300000000     0          
T        Si     0.580600000000     0.556200000000     0.348850000000     0          
T        Si     0.582800000000     0.898600000000     0.451725000000     0          
T        Si     0.534450000000     0.556800000000     0.254450000000     0          
T        Si     0.628600000000     0.556500000000     0.281300000000     0          
T        Si     0.580600000000     0.943800000000     0.348850000000     0          
T        Si     0.917200000000     0.898600000000     0.298275000000     0          
T        Si     0.965550000000     0.556800000000     0.495550000000     0          
T        Si     0.871400000000     0.556500000000     0.468700000000     0          
T        Si     0.919400000000     0.943800000000     0.401150000000     0          
T        Si     0.667200000000     0.851400000000     0.298275000000     0          
T        Si     0.715550000000     0.693200000000     0.495550000000     0          
T        Si     0.621400000000     0.693500000000     0.468700000000     0          
T        Si     0.669400000000     0.806200000000     0.401150000000     0          
T        Si     0.832800000000     0.851400000000     0.451725000000     0          
T        Si     0.784450000000     0.693200000000     0.254450000000     0          
T        Si     0.878600000000     0.693500000000     0.281300000000     0          
T        Si     0.830600000000     0.806200000000     0.348850000000     0          
T        Si     0.832800000000     0.648600000000     0.451725000000     0          
T        Si     0.784450000000     0.806800000000     0.254450000000     0          
T        Si     0.878600000000     0.806500000000     0.281300000000     0          
T        Si     0.830600000000     0.693800000000     0.348850000000     0          
T        Si     0.667200000000     0.648600000000     0.298275000000     0          
T        Si     0.715550000000     0.806800000000     0.495550000000     0          
T        Si     0.621400000000     0.806500000000     0.468700000000     0          
T        Si     0.669400000000     0.693800000000     0.401150000000     0          
T        Si     0.917200000000     0.601400000000     0.548275000000     0          
T        Si     0.965550000000     0.943200000000     0.745550000000     0          
T        Si     0.871400000000     0.943500000000     0.718700000000     0          
T        Si     0.919400000000     0.556200000000     0.651150000000     0          
T        Si     0.582800000000     0.601400000000     0.701725000000     0          
T        Si     0.534450000000     0.943200000000     0.504450000000     0          
T        Si     0.628600000000     0.943500000000     0.531300000000     0          
T        Si     0.580600000000     0.556200000000     0.598850000000     0          
T        Si     0.582800000000     0.898600000000     0.701725000000     0          
T        Si     0.534450000000     0.556800000000     0.504450000000     0          
T        Si     0.628600000000     0.556500000000     0.531300000000     0          
T        Si     0.580600000000     0.943800000000     0.598850000000     0          
T        Si     0.917200000000     0.898600000000     0.548275000000     0          
T        Si     0.965550000000     0.556800000000     0.745550000000     0          
T        Si     0.871400000000     0.556500000000     0.718700000000     0          
T        Si     0.919400000000     0.943800000000     0.651150000000     0          
T        Si     0.667200000000     0.851400000000     0.548275000000     0          
T        Si     0.715550000000     0.693200000000     0.745550000000     0          
T        Si     0.621400000000     0.693500000000     0.718700000000     0          
T        Si     0.669400000000     0.806200000000     0.651150000000     0          
T        Si     0.832800000000     0.851400000000     0.701725000000     0          
T        Si     0.784450000000     0.693200000000     0.504450000000     0          
T        Si     0.878600000000     0.693500000000     0.531300000000     0          
T        Si     0.830600000000     0.806200000000     0.598850000000     0          
T        Si     0.832800000000     0.648600000000     0.701725000000     0          
T        Si     0.784450000000     0.806800000000     0.504450000000     0          
T        Si     0.878600000000     0.806500000000     0.531300000000     0          
T        Si     0.830600000000     0.693800000000     0.598850000000     0          
T        Si     0.667200000000     0.648600000000     0.548275000000     0          
T        Si     0.715550000000     0.806800000000     0.745550000000     0          
T        Si     0.621400000000     0.806500000000     0.718700000000     0          
T        Si     0.669400000000     0.693800000000     0.651150000000     0          
T        Si     0.917200000000     0.601400000000     0.798275000000     0          
T        Si     0.965550000000     0.943200000000     0.995550000000     0          
T        Si     0.871400000000     0.943500000000     0.968700000000     0          
T        Si     0.919400000000     0.556200000000     0.901150000000     0          
T        Si     0.582800000000     0.601400000000     0.951725000000     0          
T        Si     0.534450000000     0.943200000000     0.754450000000     0          
T        Si     0.628600000000     0.943500000000     0.781300000000     0          
T        Si     0.580600000000     0.556200000000     0.848850000000     0          
T        Si     0.582800000000     0.898600000000     0.951725000000     0          
T        Si     0.534450000000     0.556800000000     0.754450000000     0          
T        Si     0.628600000000     0.556500000000     0.781300000000     0          
T        Si     0.580600000000     0.943800000000     0.848850000000     0          
T        Si     0.917200000000     0.898600000000     0.798275000000     0          
T        Si     0.965550000000     0.556800000000     0.995550000000     0          
T        Si     0.871400000000     0.556500000000     0.968700000000     0          
T        Si     0.919400000000     0.943800000000     0.901150000000     0          
T        Si     0.667200000000     0.851400000000     0.798275000000     0          
T        Si     0.715550000000     0.693200000000     0.995550000000     0          
T        Si     0.621400000000     0.693500000000     0.968700000000     0          
T        Si     0.669400000000     0.806200000000     0.901150000000     0          
T        Si     0.832800000000     0.851400000000     0.951725000000     0          
T        Si     0.784450000000     0.693200000000     0.754450000000     0          
T        Si     0.878600000000     0.693500000000     0.781300000000     0          
T        Si     0.830600000000     0.806200000000     0.848850000000     0          
T        Si     0.832800000000     0.648600000000     0.951725000000     0          
T        Si     0.784450000000     0.806800000000     0.754450000000     0          
T        Si     0.878600000000     0.806500000000     0.781300000000     0          
T        Si     0.830600000000     0.693800000000     0.848850000000     0          
T        Si     0.667200000000     0.648600000000     0.798275000000     0          
T        Si     0.715550000000     0.806800000000     0.995550000000     0          
T        Si     0.621400000000     0.806500000000     0.968700000000     0          
T        Si     0.669400000000     0.693800000000     0.901150000000     0          
O        O      0.464100000000     0.000000000000     0.011675000000     0          
O        O      0.392050000000     0.064850000000     0.020625000000     0          
O        O      0.000000000000     0.073850000000     0.000000000000     0          
O        O      0.360400000000     0.000000000000     0.214050000000     0          
O        O      0.420500000000     0.092750000000     0.105975000000     0          
O        O      0.407250000000     0.342450000000     0.035925000000     0          
O        O      0.448750000000     0.090650000000     0.030375000000     0          
O        O      0.390500000000     0.431000000000     0.176100000000     0          
O        O      0.449350000000     0.063000000000     0.190175000000     0          
O        O      0.417200000000     0.000000000000     0.132375000000     0          
O        O      0.035900000000     0.000000000000     0.238325000000     0          
O        O      0.107950000000     0.064850000000     0.229375000000     0          
O        O      0.139600000000     0.000000000000     0.035950000000     0          
O        O      0.079500000000     0.092750000000     0.144025000000     0          
O        O      0.092750000000     0.342450000000     0.214075000000     0          
O        O      0.051250000000     0.090650000000     0.219625000000     0          
O        O      0.109500000000     0.431000000000     0.073900000000     0          
O        O      0.050650000000     0.063000000000     0.059825000000     0          
O        O      0.082800000000     0.000000000000     0.117625000000     0          
O        O      0.107950000000     0.435150000000     0.229375000000     0          
O        O      0.000000000000     0.426150000000     0.000000000000     0          
O        O      0.079500000000     0.407250000000     0.144025000000     0          
O        O      0.092750000000     0.157550000000     0.214075000000     0          
O        O      0.051250000000     0.409350000000     0.219625000000     0          
O        O      0.109500000000     0.069000000000     0.073900000000     0          
O        O      0.050650000000     0.437000000000     0.059825000000     0          
O        O      0.392050000000     0.435150000000     0.020625000000     0          
O        O      0.420500000000     0.407250000000     0.105975000000     0          
O        O      0.407250000000     0.157550000000     0.035925000000     0          
O        O      0.448750000000     0.409350000000     0.030375000000     0          
O        O      0.390500000000     0.069000000000     0.176100000000     0          
O        O      0.449350000000     0.437000000000     0.190175000000     0          
O        O      0.214100000000     0.250000000000     0.011675000000     0          
O        O      0.142050000000     0.314850000000     0.020625000000     0          
O        O      0.250000000000     0.323850000000     0.000000000000     0          
O        O      0.110400000000     0.250000000000     0.214050000000     0          
O        O      0.170500000000     0.342750000000     0.105975000000     0          
O        O      0.157250000000     0.092450000000     0.035925000000     0          
O        O      0.198750000000     0.340650000000     0.030375000000     0          
O        O      0.140500000000     0.181000000000     0.176100000000     0          
O        O      0.199350000000     0.313000000000     0.190175000000     0          
O        O      0.167200000000     0.250000000000     0.132375000000     0          
O        O      0.285900000000     0.250000000000     0.238325000000     0          
O        O      0.357950000000     0.314850000000     0.229375000000     0          
O        O      0.389600000000     0.250000000000     0.035950000000     0          
O        O      0.329500000000     0.342750000000     0.144025000000     0          
O        O      0.342750000000     0.092450000000     0.214075000000     0          
O        O      0.301250000000     0.340650000000     0.219625000000     0          
O        O      0.359500000000     0.181000000000     0.073900000000     0          
O        O      0.300650000000     0.313000000000     0.059825000000     0          
O        O      0.332800000000     0.250000000000     0.117625000000     0          
O        O      0.357950000000     0.185150000000     0.229375000000     0          
O        O      0.250000000000     0.176150000000     0.000000000000     0          
O        O      0.329500000000     0.157250000000     0.144025000000     0          
O        O      0.342750000000     0.407550000000     0.214075000000     0          
O        O      0.301250000000     0.159350000000     0.219625000000     0          
O        O      0.359500000000     0.319000000000     0.073900000000     0          
O        O      0.300650000000     0.187000000000     0.059825000000     0          
O        O      0.142050000000     0.185150000000     0.020625000000     0          
O        O      0.170500000000     0.157250000000     0.105975000000     0          
O        O      0.157250000000     0.407550000000     0.035925000000     0          
O        O      0.198750000000     0.159350000000     0.030375000000     0          
O        O      0.140500000000     0.319000000000     0.176100000000     0          
O        O      0.199350000000     0.187000000000     0.190175000000     0          
O        O      0.464100000000     0.000000000000     0.261675000000     0          
O        O      0.392050000000     0.064850000000     0.270625000000     0          
O        O      0.000000000000     0.073850000000     0.250000000000     0          
O        O      0.360400000000     0.000000000000     0.464050000000     0          
O        O      0.420500000000     0.092750000000     0.355975000000     0          
O        O      0.407250000000     0.342450000000     0.285925000000     0          
O        O      0.448750000000     0.090650000000     0.280375000000     0          
O        O      0.390500000000     0.431000000000     0.426100000000     0          
O        O      0.449350000000     0.063000000000     0.440175000000     0          
O        O      0.417200000000     0.000000000000     0.382375000000     0          
O        O      0.035900000000     0.000000000000     0.488325000000     0          
O        O      0.107950000000     0.064850000000     0.479375000000     0          
O        O      0.139600000000     0.000000000000     0.285950000000     0          
O        O      0.079500000000     0.092750000000     0.394025000000     0          
O        O      0.092750000000     0.342450000000     0.464075000000     0          
O        O      0.051250000000     0.090650000000     0.469625000000     0          
O        O      0.109500000000     0.431000000000     0.323900000000     0          
O        O      0.050650000000     0.063000000000     0.309825000000     0          
O        O      0.082800000000     0.000000000000     0.367625000000     0          
O        O      0.107950000000     0.435150000000     0.479375000000     0          
O        O      0.000000000000     0.426150000000     0.250000000000     0          
O        O      0.079500000000     0.407250000000     0.394025000000     0          
O        O      0.092750000000     0.157550000000     0.464075000000     0          
O        O      0.051250000000     0.409350000000     0.469625000000     0          
O        O      0.109500000000     0.069000000000     0.323900000000     0          
O        O      0.050650000000     0.437000000000     0.309825000000     0          
O        O      0.392050000000     0.435150000000     0.270625000000     0          
O        O      0.420500000000     0.407250000000     0.355975000000     0          
O        O      0.407250000000     0.157550000000     0.285925000000     0          
O        O      0.448750000000     0.409350000000     0.280375000000     0          
O        O      0.390500000000     0.069000000000     0.426100000000     0          
O        O      0.449350000000     0.437000000000     0.440175000000     0          
O        O      0.214100000000     0.250000000000     0.261675000000     0          
O        O      0.142050000000     0.314850000000     0.270625000000     0          
O        O      0.250000000000     0.323850000000     0.250000000000     0          
O        O      0.110400000000     0.250000000000     0.464050000000     0          
O        O      0.170500000000     0.342750000000     0.355975000000     0          
O        O      0.157250000000     0.092450000000     0.285925000000     0          
O        O      0.198750000000     0.340650000000     0.280375000000     0          
O        O      0.140500000000     0.181000000000     0.426100000000     0          
O        O      0.199350000000     0.313000000000     0.440175000000     0          
O        O      0.167200000000     0.250000000000     0.382375000000     0          
O        O      0.285900000000     0.250000000000     0.488325000000     0          
O        O      0.357950000000     0.314850000000     0.479375000000     0          
O        O      0.389600000000     0.250000000000     0.285950000000     0          
O        O      0.329500000000     0.342750000000     0.394025000000     0          
O        O      0.342750000000     0.092450000000     0.464075000000     0          
O        O      0.301250000000     0.340650000000     0.469625000000     0          
O        O      0.359500000000     0.181000000000     0.323900000000     0          
O        O      0.300650000000     0.313000000000     0.309825000000     0          
O        O      0.332800000000     0.250000000000     0.367625000000     0          
O        O      0.357950000000     0.185150000000     0.479375000000     0          
O        O      0.250000000000     0.176150000000     0.250000000000     0          
O        O      0.329500000000     0.157250000000     0.394025000000     0          
O        O      0.342750000000     0.407550000000     0.464075000000     0          
O        O      0.301250000000     0.159350000000     0.469625000000     0          
O        O      0.359500000000     0.319000000000     0.323900000000     0          
O        O      0.300650000000     0.187000000000     0.309825000000     0          
O        O      0.142050000000     0.185150000000     0.270625000000     0          
O        O      0.170500000000     0.157250000000     0.355975000000     0          
O        O      0.157250000000     0.407550000000     0.285925000000     0          
O        O      0.198750000000     0.159350000000     0.280375000000     0          
O        O      0.140500000000     0.319000000000     0.426100000000     0          
O        O      0.199350000000     0.187000000000     0.440175000000     0          
O        O      0.464100000000     0.000000000000     0.511675000000     0          
O        O      0.392050000000     0.064850000000     0.520625000000     0          
O        O      0.000000000000     0.073850000000     0.500000000000     0          
O        O      0.360400000000     0.000000000000     0.714050000000     0          
O        O      0.420500000000     0.092750000000     0.605975000000     0          
O        O      0.407250000000     0.342450000000     0.535925000000     0          
O        O      0.448750000000     0.090650000000     0.530375000000     0          
O        O      0.390500000000     0.431000000000     0.676100000000     0          
O        O      0.449350000000     0.063000000000     0.690175000000     0          
O        O      0.417200000000     0.000000000000     0.632375000000     0          
O        O      0.035900000000     0.000000000000     0.738325000000     0          
O        O      0.107950000000     0.064850000000     0.729375000000     0          
O        O      0.139600000000     0.000000000000     0.535950000000     0          
O        O      0.079500000000     0.092750000000     0.644025000000     0          
O        O      0.092750000000     0.342450000000     0.714075000000     0          
O        O      0.051250000000     0.090650000000     0.719625000000     0          
O        O      0.109500000000     0.431000000000     0.573900000000     0          
O        O      0.050650000000     0.063000000000     0.559825000000     0          
O        O      0.082800000000     0.000000000000     0.617625000000     0          
O        O      0.107950000000     0.435150000000     0.729375000000     0          
O        O      0.000000000000     0.426150000000     0.500000000000     0          
O        O      0.079500000000     0.407250000000     0.644025000000     0          
O        O      0.092750000000     0.157550000000     0.714075000000     0          
O        O      0.051250000000     0.409350000000     0.719625000000     0          
O        O      0.109500000000     0.069000000000     0.573900000000     0          
O        O      0.050650000000     0.437000000000     0.559825000000     0          
O        O      0.392050000000     0.435150000000     0.520625000000     0          
O        O      0.420500000000     0.407250000000     0.605975000000     0          
O        O      0.407250000000     0.157550000000     0.535925000000     0          
O        O      0.448750000000     0.409350000000     0.530375000000     0          
O        O      0.390500000000     0.069000000000     0.676100000000     0          
O        O      0.449350000000     0.437000000000     0.690175000000     0          
O        O      0.214100000000     0.250000000000     0.511675000000     0          
O        O      0.142050000000     0.314850000000     0.520625000000     0          
O        O      0.250000000000     0.323850000000     0.500000000000     0          
O        O      0.110400000000     0.250000000000     0.714050000000     0          
O        O      0.170500000000     0.342750000000     0.605975000000     0          
O        O      0.157250000000     0.092450000000     0.535925000000     0          
O        O      0.198750000000     0.340650000000     0.530375000000     0          
O        O      0.140500000000     0.181000000000     0.676100000000     0          
O        O      0.199350000000     0.313000000000     0.690175000000     0          
O        O      0.167200000000     0.250000000000     0.632375000000     0          
O        O      0.285900000000     0.250000000000     0.738325000000     0          
O        O      0.357950000000     0.314850000000     0.729375000000     0          
O        O      0.389600000000     0.250000000000     0.535950000000     0          
O        O      0.329500000000     0.342750000000     0.644025000000     0          
O        O      0.342750000000     0.092450000000     0.714075000000     0          
O        O      0.301250000000     0.340650000000     0.719625000000     0          
O        O      0.359500000000     0.181000000000     0.573900000000     0          
O        O      0.300650000000     0.313000000000     0.559825000000     0          
O        O      0.332800000000     0.250000000000     0.617625000000     0          
O        O      0.357950000000     0.185150000000     0.729375000000     0          
O        O      0.250000000000     0.176150000000     0.500000000000     0          
O        O      0.329500000000     0.157250000000     0.644025000000     0          
O        O      0.342750000000     0.407550000000     0.714075000000     0          
O        O      0.301250000000     0.159350000000     0.719625000000     0          
O        O      0.359500000000     0.319000000000     0.573900000000     0          
O        O      0.300650000000     0.187000000000     0.559825000000     0          
O        O      0.142050000000     0.185150000000     0.520625000000     0          
O        O      0.170500000000     0.157250000000     0.605975000000     0          
O        O      0.157250000000     0.407550000000     0.535925000000     0          
O        O      0.198750000000     0.159350000000     0.530375000000     0          
O        O      0.140500000000     0.319000000000     0.676100000000     0          
O        O      0.199350000000     0.187000000000     0.690175000000     0          
O        O      0.464100000000     0.000000000000     0.761675000000     0          
O        O      0.392050000000     0.064850000000     0.770625000000     0          
O        O      0.000000000000     0.073850000000     0.750000000000     0          
O        O      0.360400000000     0.000000000000     0.964050000000     0          
O        O      0.420500000000     0.092750000000     0.855975000000     0          
O        O      0.407250000000     0.342450000000     0.785925000000     0          
O        O      0.448750000000     0.090650000000     0.780375000000     0          
O        O      0.390500000000     0.431000000000     0.926100000000     0          
O        O      0.449350000000     0.063000000000     0.940175000000     0          
O        O      0.417200000000     0.000000000000     0.882375000000     0          
O        O      0.035900000000     0.000000000000     0.988325000000     0          
O        O      0.107950000000     0.064850000000     0.979375000000     0          
O        O      0.139600000000     0.000000000000     0.785950000000     0          
O        O      0.079500000000     0.092750000000     0.894025000000     0          
O        O      0.092750000000     0.342450000000     0.964075000000     0          
O        O      0.051250000000     0.090650000000     0.969625000000     0          
O        O      0.109500000000     0.431000000000     0.823900000000     0          
O        O      0.050650000000     0.063000000000     0.809825000000     0          
O        O      0.082800000000     0.000000000000     0.867625000000     0          
O        O      0.107950000000     0.435150000000     0.979375000000     0          
O        O      0.000000000000     0.426150000000     0.750000000000     0          
O        O      0.079500000000     0.407250000000     0.894025000000     0          
O        O      0.092750000000     0.157550000000     0.964075000000     0          
O        O      0.051250000000     0.409350000000     0.969625000000     0          
O        O      0.109500000000     0.069000000000     0.823900000000     0          
O        O      0.050650000000     0.437000000000     0.809825000000     0          
O        O      0.392050000000     0.435150000000     0.770625000000     0          
O        O      0.420500000000     0.407250000000     0.855975000000     0          
O        O      0.407250000000     0.157550000000     0.785925000000     0          
O        O      0.448750000000     0.409350000000     0.780375000000     0          
O        O      0.390500000000     0.069000000000     0.926100000000     0          
O        O      0.449350000000     0.437000000000     0.940175000000     0          
O        O      0.214100000000     0.250000000000     0.761675000000     0          
O        O      0.142050000000     0.314850000000     0.770625000000     0          
O        O      0.250000000000     0.323850000000     0.750000000000     0          
O        O      0.110400000000     0.250000000000     0.964050000000     0          
O        O      0.170500000000     0.342750000000     0.855975000000     0          
O        O      0.157250000000     0.092450000000     0.785925000000     0          
O        O      0.198750000000     0.340650000000     0.780375000000     0          
O        O      0.140500000000     0.181000000000     0.926100000000     0          
O        O      0.199350000000     0.313000000000     0.940175000000     0          
O        O      0.167200000000     0.250000000000     0.882375000000     0          
O        O      0.285900000000     0.250000000000     0.988325000000     0          
O        O      0.357950000000     0.314850000000     0.979375000000     0          
O        O      0.389600000000     0.250000000000     0.785950000000     0          
O        O      0.329500000000     0.342750000000     0.894025000000     0          
O        O      0.342750000000     0.092450000000     0.964075000000     0          
O        O      0.301250000000     0.340650000000     0.969625000000     0          
O        O      0.359500000000     0.181000000000     0.823900000000     0          
O        O      0.300650000000     0.313000000000     0.809825000000     0          
O        O      0.332800000000     0.250000000000     0.867625000000     0          
O        O      0.357950000000     0.185150000000     0.979375000000     0          
O        O      0.250000000000     0.176150000000     0.750000000000     0          
O        O      0.329500000000     0.157250000000     0.894025000000     0          
O        O      0.342750000000     0.407550000000     0.964075000000     0          
O        O      0.301250000000     0.159350000000     0.969625000000     0          
O        O      0.359500000000     0.319000000000     0.823900000000     0          
O        O      0.300650000000     0.187000000000     0.809825000000     0          
O        O      0.142050000000     0.185150000000     0.770625000000     0          
O        O      0.170500000000     0.157250000000     0.855975000000     0          
O        O      0.157250000000     0.407550000000     0.785925000000     0          
O        O      0.198750000000     0.159350000000     0.780375000000     0          
O        O      0.140500000000     0.319000000000     0.926100000000     0          
O        O      0.199350000000     0.187000000000     0.940175000000     0          
O        O      0.464100000000     0.500000000000     0.011675000000     0          
O        O      0.392050000000     0.564850000000     0.020625000000     0          
O        O      0.000000000000     0.573850000000     0.000000000000     0          
O        O      0.360400000000     0.500000000000     0.214050000000     0          
O        O      0.420500000000     0.592750000000     0.105975000000     0          
O        O      0.407250000000     0.842450000000     0.035925000000     0          
O        O      0.448750000000     0.590650000000     0.030375000000     0          
O        O      0.390500000000     0.931000000000     0.176100000000     0          
O        O      0.449350000000     0.563000000000     0.190175000000     0          
O        O      0.417200000000     0.500000000000     0.132375000000     0          
O        O      0.035900000000     0.500000000000     0.238325000000     0          
O        O      0.107950000000     0.564850000000     0.229375000000     0          
O        O      0.139600000000     0.500000000000     0.035950000000     0          
O        O      0.079500000000     0.592750000000     0.144025000000     0          
O        O      0.092750000000     0.842450000000     0.214075000000     0          
O        O      0.051250000000     0.590650000000     0.219625000000     0          
O        O      0.109500000000     0.931000000000     0.073900000000     0          
O        O      0.050650000000     0.563000000000     0.059825000000     0          
O        O      0.082800000000     0.500000000000     0.117625000000     0          
O        O      0.107950000000     0.935150000000     0.229375000000     0          
O        O      0.000000000000     0.926150000000     0.000000000000     0          
O        O      0.079500000000     0.907250000000     0.144025000000     0          
O        O      0.092750000000     0.657550000000     0.214075000000     0          
O        O      0.051250000000     0.909350000000     0.219625000000     0          
O        O      0.109500000000     0.569000000000     0.073900000000     0          
O        O      0.050650000000     0.937000000000     0.059825000000     0          
O        O      0.392050000000     0.935150000000     0.020625000000     0          
O        O      0.420500000000     0.907250000000     0.105975000000     0          
O        O      0.407250000000     0.657550000000     0.035925000000     0          
O        O      0.448750000000     0.909350000000     0.030375000000     0          
O        O      0.390500000000     0.569000000000     0.176100000000     0          
O        O      0.449350000000     0.937000000000     0.190175000000     0          
O        O      0.214100000000     0.750000000000     0.011675000000     0          
O        O      0.142050000000     0.814850000000     0.020625000000     0          
O        O      0.250000000000     0.823850000000     0.000000000000     0          
O        O      0.110400000000     0.750000000000     0.214050000000     0          
O        O      0.170500000000     0.842750000000     0.105975000000     0          
O        O      0.157250000000     0.592450000000     0.035925000000     0          
O        O      0.198750000000     0.840650000000     0.030375000000     0          
O        O      0.140500000000     0.681000000000     0.176100000000     0          
O        O      0.199350000000     0.813000000000     0.190175000000     0          
O        O      0.167200000000     0.750000000000     0.132375000000     0          
O        O      0.285900000000     0.750000000000     0.238325000000     0          
O        O      0.357950000000     0.814850000000     0.229375000000     0          
O        O      0.389600000000     0.750000000000     0.035950000000     0          
O        O      0.329500000000     0.842750000000     0.144025000000     0          
O        O      0.342750000000     0.592450000000     0.214075000000     0          
O        O      0.301250000000     0.840650000000     0.219625000000     0          
O        O      0.359500000000     0.681000000000     0.073900000000     0          
O        O      0.300650000000     0.813000000000     0.059825000000     0          
O        O      0.332800000000     0.750000000000     0.117625000000     0          
O        O      0.357950000000     0.685150000000     0.229375000000     0          
O        O      0.250000000000     0.676150000000     0.000000000000     0          
O        O      0.329500000000     0.657250000000     0.144025000000     0          
O        O      0.342750000000     0.907550000000     0.214075000000     0          
O        O      0.301250000000     0.659350000000     0.219625000000     0          
O        O      0.359500000000     0.819000000000     0.073900000000     0          
O        O      0.300650000000     0.687000000000     0.059825000000     0          
O        O      0.142050000000     0.685150000000     0.020625000000     0          
O        O      0.170500000000     0.657250000000     0.105975000000     0          
O        O      0.157250000000     0.907550000000     0.035925000000     0          
O        O      0.198750000000     0.659350000000     0.030375000000     0          
O        O      0.140500000000     0.819000000000     0.176100000000     0          
O        O      0.199350000000     0.687000000000     0.190175000000     0          
O        O      0.464100000000     0.500000000000     0.261675000000     0          
O        O      0.392050000000     0.564850000000     0.270625000000     0          
O        O      0.000000000000     0.573850000000     0.250000000000     0          
O        O      0.360400000000     0.500000000000     0.464050000000     0          
O        O      0.420500000000     0.592750000000     0.355975000000     0          
O        O      0.407250000000     0.842450000000     0.285925000000     0          
O        O      0.448750000000     0.590650000000     0.280375000000     0          
O        O      0.390500000000     0.931000000000     0.426100000000     0          
O        O      0.449350000000     0.563000000000     0.440175000000     0          
O        O      0.417200000000     0.500000000000     0.382375000000     0          
O        O      0.035900000000     0.500000000000     0.488325000000     0          
O        O      0.107950000000     0.564850000000     0.479375000000     0          
O        O      0.139600000000     0.500000000000     0.285950000000     0          
O        O      0.079500000000     0.592750000000     0.394025000000     0          
O        O      0.092750000000     0.842450000000     0.464075000000     0          
O        O      0.051250000000     0.590650000000     0.469625000000     0          
O        O      0.109500000000     0.931000000000     0.323900000000     0          
O        O      0.050650000000     0.563000000000     0.309825000000     0          
O        O      0.082800000000     0.500000000000     0.367625000000     0          
O        O      0.107950000000     0.935150000000     0.479375000000     0          
O        O      0.000000000000     0.926150000000     0.250000000000     0          
O        O      0.079500000000     0.907250000000     0.394025000000     0          
O        O      0.092750000000     0.657550000000     0.464075000000     0          
O        O      0.051250000000     0.909350000000     0.469625000000     0          
O        O      0.109500000000     0.569000000000     0.323900000000     0          
O        O      0.050650000000     0.937000000000     0.309825000000     0          
O        O      0.392050000000     0.935150000000     0.270625000000     0          
O        O      0.420500000000     0.907250000000     0.355975000000     0          
O        O      0.407250000000     0.657550000000     0.285925000000     0          
O        O      0.448750000000     0.909350000000     0.280375000000     0          
O        O      0.390500000000     0.569000000000     0.426100000000     0          
O        O      0.449350000000     0.937000000000     0.440175000000     0          
O        O      0.214100000000     0.750000000000     0.261675000000     0          
O        O      0.142050000000     0.814850000000     0.270625000000     0          
O        O      0.250000000000     0.823850000000     0.250000000000     0          
O        O      0.110400000000     0.750000000000     0.464050000000     0          
O        O      0.170500000000     0.842750000000     0.355975000000     0          
O        O      0.157250000000     0.592450000000     0.285925000000     0          
O        O      0.198750000000     0.840650000000     0.280375000000     0          
O        O      0.140500000000     0.681000000000     0.426100000000     0          
O        O      0.199350000000     0.813000000000     0.440175000000     0          
O        O      0.167200000000     0.750000000000     0.382375000000     0          
O        O      0.285900000000     0.750000000000     0.488325000000     0          
O        O      0.357950000000     0.814850000000     0.479375000000     0          
O        O      0.389600000000     0.750000000000     0.285950000000     0          
O        O      0.329500000000     0.842750000000     0.394025000000     0          
O        O      0.342750000000     0.592450000000     0.464075000000     0          
O        O      0.301250000000     0.840650000000     0.469625000000     0          
O        O      0.359500000000     0.681000000000     0.323900000000     0          
O        O      0.300650000000     0.813000000000     0.309825000000     0          
O        O      0.332800000000     0.750000000000     0.367625000000     0          
O        O      0.357950000000     0.685150000000     0.479375000000     0          
O        O      0.250000000000     0.676150000000     0.250000000000     0          
O        O      0.329500000000     0.657250000000     0.394025000000     0          
O        O      0.342750000000     0.907550000000     0.464075000000     0          
O        O      0.301250000000     0.659350000000     0.469625000000     0          
O        O      0.359500000000     0.819000000000     0.323900000000     0          
O        O      0.300650000000     0.687000000000     0.309825000000     0          
O        O      0.142050000000     0.685150000000     0.270625000000     0          
O        O      0.170500000000     0.657250000000     0.355975000000     0          
O        O      0.157250000000     0.907550000000     0.285925000000     0          
O        O      0.198750000000     0.659350000000     0.280375000000     0          
O        O      0.140500000000     0.819000000000     0.426100000000     0          
O        O      0.199350000000     0.687000000000     0.440175000000     0          
O        O      0.464100000000     0.500000000000     0.511675000000     0          
O        O      0.392050000000     0.564850000000     0.520625000000     0          
O        O      0.000000000000     0.573850000000     0.500000000000     0          
O        O      0.360400000000     0.500000000000     0.714050000000     0          
O        O      0.420500000000     0.592750000000     0.605975000000     0          
O        O      0.407250000000     0.842450000000     0.535925000000     0          
O        O      0.448750000000     0.590650000000     0.530375000000     0          
O        O      0.390500000000     0.931000000000     0.676100000000     0          
O        O      0.449350000000     0.563000000000     0.690175000000     0          
O        O      0.417200000000     0.500000000000     0.632375000000     0          
O        O      0.035900000000     0.500000000000     0.738325000000     0          
O        O      0.107950000000     0.564850000000     0.729375000000     0          
O        O      0.139600000000     0.500000000000     0.535950000000     0          
O        O      0.079500000000     0.592750000000     0.644025000000     0          
O        O      0.092750000000     0.842450000000     0.714075000000     0          
O        O      0.051250000000     0.590650000000     0.719625000000     0          
O        O      0.109500000000     0.931000000000     0.573900000000     0          
O        O      0.050650000000     0.563000000000     0.559825000000     0          
O        O      0.082800000000     0.500000000000     0.617625000000     0          
O        O      0.107950000000     0.935150000000     0.729375000000     0          
O        O      0.000000000000     0.926150000000     0.500000000000     0          
O        O      0.079500000000     0.907250000000     0.644025000000     0          
O        O      0.092750000000     0.657550000000     0.714075000000     0          
O        O      0.051250000000     0.909350000000     0.719625000000     0          
O        O      0.109500000000     0.569000000000     0.573900000000     0          
O        O      0.050650000000     0.937000000000     0.559825000000     0          
O        O      0.392050000000     0.935150000000     0.520625000000     0          
O        O      0.420500000000     0.907250000000     0.605975000000     0          
O        O      0.407250000000     0.657550000000     0.535925000000     0          
O        O      0.448750000000     0.909350000000     0.530375000000     0          
O        O      0.390500000000     0.569000000000     0.676100000000     0          
O        O      0.449350000000     0.937000000000     0.690175000000     0          
O        O      0.214100000000     0.750000000000     0.511675000000     0          
O        O      0.142050000000     0.814850000000     0.520625000000     0          
O        O      0.250000000000     0.823850000000     0.500000000000     0          
O        O      0.110400000000     0.750000000000     0.714050000000     0          
O        O      0.170500000000     0.842750000000     0.605975000000     0          
O        O      0.157250000000     0.592450000000     0.535925000000     0          
O        O      0.198750000000     0.840650000000     0.530375000000     0          
O        O      0.140500000000     0.681000000000     0.676100000000     0          
O        O      0.199350000000     0.813000000000     0.690175000000     0          
O        O      0.167200000000     0.750000000000     0.632375000000     0          
O        O      0.285900000000     0.750000000000     0.738325000000     0          
O        O      0.357950000000     0.814850000000     0.729375000000     0          
O        O      0.389600000000     0.750000000000     0.535950000000     0          
O        O      0.329500000000     0.842750000000     0.644025000000     0          
O        O      0.342750000000     0.592450000000     0.714075000000     0          
O        O      0.301250000000     0.840650000000     0.719625000000     0          
O        O      0.359500000000     0.681000000000     0.573900000000     0          
O        O      0.300650000000     0.813000000000     0.559825000000     0          
O        O      0.332800000000     0.750000000000     0.617625000000     0          
O        O      0.357950000000     0.685150000000     0.729375000000     0          
O        O      0.250000000000     0.676150000000     0.500000000000     0          
O        O      0.329500000000     0.657250000000     0.644025000000     0          
O        O      0.342750000000     0.907550000000     0.714075000000     0          
O        O      0.301250000000     0.659350000000     0.719625000000     0          
O        O      0.359500000000     0.819000000000     0.573900000000     0          
O        O      0.300650000000     0.687000000000     0.559825000000     0          
O        O      0.142050000000     0.685150000000     0.520625000000     0          
O        O      0.170500000000     0.657250000000     0.605975000000     0          
O        O      0.157250000000     0.907550000000     0.535925000000     0          
O        O      0.198750000000     0.659350000000     0.530375000000     0          
O        O      0.140500000000     0.819000000000     0.676100000000     0          
O        O      0.199350000000     0.687000000000     0.690175000000     0          
O        O      0.464100000000     0.500000000000     0.761675000000     0          
O        O      0.392050000000     0.564850000000     0.770625000000     0          
O        O      0.000000000000     0.573850000000     0.750000000000     0          
O        O      0.360400000000     0.500000000000     0.964050000000     0          
O        O      0.420500000000     0.592750000000     0.855975000000     0          
O        O      0.407250000000     0.842450000000     0.785925000000     0          
O        O      0.448750000000     0.590650000000     0.780375000000     0          
O        O      0.390500000000     0.931000000000     0.926100000000     0          
O        O      0.449350000000     0.563000000000     0.940175000000     0          
O        O      0.417200000000     0.500000000000     0.882375000000     0          
O        O      0.035900000000     0.500000000000     0.988325000000     0          
O        O      0.107950000000     0.564850000000     0.979375000000     0          
O        O      0.139600000000     0.500000000000     0.785950000000     0          
O        O      0.079500000000     0.592750000000     0.894025000000     0          
O        O      0.092750000000     0.842450000000     0.964075000000     0          
O        O      0.051250000000     0.590650000000     0.969625000000     0          
O        O      0.109500000000     0.931000000000     0.823900000000     0          
O        O      0.050650000000     0.563000000000     0.809825000000     0          
O        O      0.082800000000     0.500000000000     0.867625000000     0          
O        O      0.107950000000     0.935150000000     0.979375000000     0          
O        O      0.000000000000     0.926150000000     0.750000000000     0          
O        O      0.079500000000     0.907250000000     0.894025000000     0          
O        O      0.092750000000     0.657550000000     0.964075000000     0          
O        O      0.051250000000     0.909350000000     0.969625000000     0          
O        O      0.109500000000     0.569000000000     0.823900000000     0          
O        O      0.050650000000     0.937000000000     0.809825000000     0          
O        O      0.392050000000     0.935150000000     0.770625000000     0          
O        O      0.420500000000     0.907250000000     0.855975000000     0          
O        O      0.407250000000     0.657550000000     0.785925000000     0          
O        O      0.448750000000     0.909350000000     0.780375000000     0          
O        O      0.390500000000     0.569000000000     0.926100000000     0          
O        O      0.449350000000     0.937000000000     0.940175000000     0          
O        O      0.214100000000     0.750000000000     0.761675000000     0          
O        O      0.142050000000     0.814850000000     0.770625000000     0          
O        O      0.250000000000     0.823850000000     0.750000000000     0          
O        O      0.110400000000     0.750000000000     0.964050000000     0          
O        O      0.170500000000     0.842750000000     0.855975000000     0          
O        O      0.157250000000     0.592450000000     0.785925000000     0          
O        O      0.198750000000     0.840650000000     0.780375000000     0          
O        O      0.140500000000     0.681000000000     0.926100000000     0          
O        O      0.199350000000     0.813000000000     0.940175000000     0          
O        O      0.167200000000     0.750000000000     0.882375000000     0          
O        O      0.285900000000     0.750000000000     0.988325000000     0          
O        O      0.357950000000     0.814850000000     0.979375000000     0          
O        O      0.389600000000     0.750000000000     0.785950000000     0          
O        O      0.329500000000     0.842750000000     0.894025000000     0          
O        O      0.342750000000     0.592450000000     0.964075000000     0          
O        O      0.301250000000     0.840650000000     0.969625000000     0          
O        O      0.359500000000     0.681000000000     0.823900000000     0          
O        O      0.300650000000     0.813000000000     0.809825000000     0          
O        O      0.332800000000     0.750000000000     0.867625000000     0          
O        O      0.357950000000     0.685150000000     0.979375000000     0          
O        O      0.250000000000     0.676150000000     0.750000000000     0          
O        O      0.329500000000     0.657250000000     0.894025000000     0          
O        O      0.342750000000     0.907550000000     0.964075000000     0          
O        O      0.301250000000     0.659350000000     0.969625000000     0          
O        O      0.359500000000     0.819000000000     0.823900000000     0          
O        O      0.300650000000     0.687000000000     0.809825000000     0          
O        O      0.142050000000     0.685150000000     0.770625000000     0          
O        O      0.170500000000     0.657250000000     0.855975000000     0          
O        O      0.157250000000     0.907550000000     0.785925000000     0          
O        O      0.198750000000     0.659350000000     0.780375000000     0          
O        O      0.140500000000     0.819000000000     0.926100000000     0          
O        O      0.199350000000     0.687000000000     0.940175000000     0          
O        O      0.964100000000     0.000000000000     0.011675000000     0          
O        O      0.892050000000     0.064850000000     0.020625000000     0          
O        O      0.500000000000     0.073850000000     0.000000000000     0          
O        O      0.860400000000     0.000000000000     0.214050000000     0          
O        O      0.920500000000     0.092750000000     0.105975000000     0          
O        O      0.907250000000     0.342450000000     0.035925000000     0          
O        O      0.948750000000     0.090650000000     0.030375000000     0          
O        O      0.890500000000     0.431000000000     0.176100000000     0          
O        O      0.949350000000     0.063000000000     0.190175000000     0          
O        O      0.917200000000     0.000000000000     0.132375000000     0          
O        O      0.535900000000     0.000000000000     0.238325000000     0          
O        O      0.607950000000     0.064850000000     0.229375000000     0          
O        O      0.639600000000     0.000000000000     0.035950000000     0          
O        O      0.579500000000     0.092750000000     0.144025000000     0          
O        O      0.592750000000     0.342450000000     0.214075000000     0          
O        O      0.551250000000     0.090650000000     0.219625000000     0          
O        O      0.609500000000     0.431000000000     0.073900000000     0          
O        O      0.550650000000     0.063000000000     0.059825000000     0          
O        O      0.582800000000     0.000000000000     0.117625000000     0          
O        O      0.607950000000     0.435150000000     0.229375000000     0          
O        O      0.500000000000     0.426150000000     0.000000000000     0          
O        O      0.579500000000     0.407250000000     0.144025000000     0          
O        O      0.592750000000     0.157550000000     0.214075000000     0          
O        O      0.551250000000     0.409350000000     0.219625000000     0          
O        O      0.609500000000     0.069000000000     0.073900000000     0          
O        O      0.550650000000     0.437000000000     0.059825000000     0          
O        O      0.892050000000     0.435150000000     0.020625000000     0          
O        O      0.920500000000     0.407250000000     0.105975000000     0          
O        O      0.907250000000     0.157550000000     0.035925000000     0          
O        O      0.948750000000     0.409350000000     0.030375000000     0          
O        O      0.890500000000     0.069000000000     0.176100000000     0          
O        O      0.949350000000     0.437000000000     0.190175000000     0          
O        O      0.714100000000     0.250000000000     0.011675000000     0          
O        O      0.642050000000     0.314850000000     0.020625000000     0          
O        O      0.750000000000     0.323850000000     0.000000000000     0          
O        O      0.610400000000     0.250000000000     0.214050000000     0          
O        O      0.670500000000     0.342750000000     0.105975000000     0          
O        O      0.657250000000     0.092450000000     0.035925000000     0          
O        O      0.698750000000     0.340650000000     0.030375000000     0          
O        O      0.640500000000     0.181000000000     0.176100000000     0          
O        O      0.699350000000     0.313000000000     0.190175000000     0          
O        O      0.667200000000     0.250000000000     0.132375000000     0          
O        O      0.785900000000     0.250000000000     0.238325000000     0          
O        O      0.857950000000     0.314850000000     0.229375000000     0          
O        O      0.889600000000     0.250000000000     0.035950000000     0          
O        O      0.829500000000     0.342750000000     0.144025000000     0          
O        O      0.842750000000     0.092450000000     0.214075000000     0          
O        O      0.801250000000     0.340650000000     0.219625000000     0          
O        O      0.859500000000     0.181000000000     0.073900000000     0          
O        O      0.800650000000     0.313000000000     0.059825000000     0          
O        O      0.832800000000     0.250000000000     0.117625000000     0          
O        O      0.857950000000     0.185150000000     0.229375000000     0          
O        O      0.750000000000     0.176150000000     0.000000000000     0          
O        O      0.829500000000     0.157250000000     0.144025000000     0          
O        O      0.842750000000     0.407550000000     0.214075000000     0          
O        O      0.801250000000     0.159350000000     0.219625000000     0          
O        O      0.859500000000     0.319000000000     0.073900000000     0          
O        O      0.800650000000     0.187000000000     0.059825000000     0          
O        O      0.642050000000     0.185150000000     0.020625000000     0          
O        O      0.670500000000     0.157250000000     0.105975000000     0          
O        O      0.657250000000     0.407550000000     0.035925000000     0          
O        O      0.698750000000     0.159350000000     0.030375000000     0          
O        O      0.640500000000     0.319000000000     0.176100000000     0          
O        O      0.699350000000     0.187000000000     0.190175000000     0          
O        O      0.964100000000     0.000000000000     0.261675000000     0          
O        O      0.892050000000     0.064850000000     0.270625000000     0          
O        O      0.500000000000     0.073850000000     0.250000000000     0          
O        O      0.860400000000     0.000000000000     0.464050000000     0          
O        O      0.920500000000     0.092750000000     0.355975000000     0          
O        O      0.907250000000     0.342450000000     0.285925000000     0          
O        O      0.948750000000     0.090650000000     0.280375000000     0          
O        O      0.890500000000     0.431000000000     0.426100000000     0          
O        O      0.949350000000     0.063000000000     0.440175000000     0          
O        O      0.917200000000     0.000000000000     0.382375000000     0          
O        O      0.535900000000     0.000000000000     0.488325000000     0          
O        O      0.607950000000     0.064850000000     0.479375000000     0          
O        O      0.639600000000     0.000000000000     0.285950000000     0          
O        O      0.579500000000     0.092750000000     0.394025000000     0          
O        O      0.592750000000     0.342450000000     0.464075000000     0          
O        O      0.551250000000     0.090650000000     0.469625000000     0          
O        O      0.609500000000     0.431000000000     0.323900000000     0          
O        O      0.550650000000     0.063000000000     0.309825000000     0          
O        O      0.582800000000     0.000000000000     0.367625000000     0          
O        O      0.607950000000     0.435150000000     0.479375000000     0          
O        O      0.500000000000     0.426150000000     0.250000000000     0          
O        O      0.579500000000     0.407250000000     0.394025000000     0          
O        O      0.592750000000     0.157550000000     0.464075000000     0          
O        O      0.551250000000     0.409350000000     0.469625000000     0          
O        O      0.609500000000     0.069000000000     0.323900000000     0          
O        O      0.550650000000     0.437000000000     0.309825000000     0          
O        O      0.892050000000     0.435150000000     0.270625000000     0          
O        O      0.920500000000     0.407250000000     0.355975000000     0          
O        O      0.907250000000     0.157550000000     0.285925000000     0          
O        O      0.948750000000     0.409350000000     0.280375000000     0          
O        O      0.890500000000     0.069000000000     0.426100000000     0          
O        O      0.949350000000     0.437000000000     0.440175000000     0          
O        O      0.714100000000     0.250000000000     0.261675000000     0          
O        O      0.642050000000     0.314850000000     0.270625000000     0          
O        O      0.750000000000     0.323850000000     0.250000000000     0          
O        O      0.610400000000     0.250000000000     0.464050000000     0          
O        O      0.670500000000     0.342750000000     0.355975000000     0          
O        O      0.657250000000     0.092450000000     0.285925000000     0          
O        O      0.698750000000     0.340650000000     0.280375000000     0          
O        O      0.640500000000     0.181000000000     0.426100000000     0          
O        O      0.699350000000     0.313000000000     0.440175000000     0          
O        O      0.667200000000     0.250000000000     0.382375000000     0          
O        O      0.785900000000     0.250000000000     0.488325000000     0          
O        O      0.857950000000     0.314850000000     0.479375000000     0          
O        O      0.889600000000     0.250000000000     0.285950000000     0          
O        O      0.829500000000     0.342750000000     0.394025000000     0          
O        O      0.842750000000     0.092450000000     0.464075000000     0          
O        O      0.801250000000     0.340650000000     0.469625000000     0          
O        O      0.859500000000     0.181000000000     0.323900000000     0          
O        O      0.800650000000     0.313000000000     0.309825000000     0          
O        O      0.832800000000     0.250000000000     0.367625000000     0          
O        O      0.857950000000     0.185150000000     0.479375000000     0          
O        O      0.750000000000     0.176150000000     0.250000000000     0          
O        O      0.829500000000     0.157250000000     0.394025000000     0          
O        O      0.842750000000     0.407550000000     0.464075000000     0          
O        O      0.801250000000     0.159350000000     0.469625000000     0          
O        O      0.859500000000     0.319000000000     0.323900000000     0          
O        O      0.800650000000     0.187000000000     0.309825000000     0          
O        O      0.642050000000     0.185150000000     0.270625000000     0          
O        O      0.670500000000     0.157250000000     0.355975000000     0          
O        O      0.657250000000     0.407550000000     0.285925000000     0          
O        O      0.698750000000     0.159350000000     0.280375000000     0          
O        O      0.640500000000     0.319000000000     0.426100000000     0          
O        O      0.699350000000     0.187000000000     0.440175000000     0          
O        O      0.964100000000     0.000000000000     0.511675000000     0          
O        O      0.892050000000     0.064850000000     0.520625000000     0          
O        O      0.500000000000     0.073850000000     0.500000000000     0          
O        O      0.860400000000     0.000000000000     0.714050000000     0          
O        O      0.920500000000     0.092750000000     0.605975000000     0          
O        O      0.907250000000     0.342450000000     0.535925000000     0          
O        O      0.948750000000     0.090650000000     0.530375000000     0          
O        O      0.890500000000     0.431000000000     0.676100000000     0          
O        O      0.949350000000     0.063000000000     0.690175000000     0          
O        O      0.917200000000     0.000000000000     0.632375000000     0          
O        O      0.535900000000     0.000000000000     0.738325000000     0          
O        O      0.607950000000     0.064850000000     0.729375000000     0          
O        O      0.639600000000     0.000000000000     0.535950000000     0          
O        O      0.579500000000     0.092750000000     0.644025000000     0          
O        O      0.592750000000     0.342450000000     0.714075000000     0          
O        O      0.551250000000     0.090650000000     0.719625000000     0          
O        O      0.609500000000     0.431000000000     0.573900000000     0          
O        O      0.550650000000     0.063000000000     0.559825000000     0          
O        O      0.582800000000     0.000000000000     0.617625000000     0          
O        O      0.607950000000     0.435150000000     0.729375000000     0          
O        O      0.500000000000     0.426150000000     0.500000000000     0          
O        O      0.579500000000     0.407250000000     0.644025000000     0          
O        O      0.592750000000     0.157550000000     0.714075000000     0          
O        O      0.551250000000     0.409350000000     0.719625000000     0          
O        O      0.609500000000     0.069000000000     0.573900000000     0          
O        O      0.550650000000     0.437000000000     0.559825000000     0          
O        O      0.892050000000     0.435150000000     0.520625000000     0          
O        O      0.920500000000     0.407250000000     0.605975000000     0          
O        O      0.907250000000     0.157550000000     0.535925000000     0          
O        O      0.948750000000     0.409350000000     0.530375000000     0          
O        O      0.890500000000     0.069000000000     0.676100000000     0          
O        O      0.949350000000     0.437000000000     0.690175000000     0          
O        O      0.714100000000     0.250000000000     0.511675000000     0          
O        O      0.642050000000     0.314850000000     0.520625000000     0          
O        O      0.750000000000     0.323850000000     0.500000000000     0          
O        O      0.610400000000     0.250000000000     0.714050000000     0          
O        O      0.670500000000     0.342750000000     0.605975000000     0          
O        O      0.657250000000     0.092450000000     0.535925000000     0          
O        O      0.698750000000     0.340650000000     0.530375000000     0          
O        O      0.640500000000     0.181000000000     0.676100000000     0          
O        O      0.699350000000     0.313000000000     0.690175000000     0          
O        O      0.667200000000     0.250000000000     0.632375000000     0          
O        O      0.785900000000     0.250000000000     0.738325000000     0          
O        O      0.857950000000     0.314850000000     0.729375000000     0          
O        O      0.889600000000     0.250000000000     0.535950000000     0          
O        O      0.829500000000     0.342750000000     0.644025000000     0          
O        O      0.842750000000     0.092450000000     0.714075000000     0          
O        O      0.801250000000     0.340650000000     0.719625000000     0          
O        O      0.859500000000     0.181000000000     0.573900000000     0          
O        O      0.800650000000     0.313000000000     0.559825000000     0          
O        O      0.832800000000     0.250000000000     0.617625000000     0          
O        O      0.857950000000     0.185150000000     0.729375000000     0          
O        O      0.750000000000     0.176150000000     0.500000000000     0          
O        O      0.829500000000     0.157250000000     0.644025000000     0          
O        O      0.842750000000     0.407550000000     0.714075000000     0          
O        O      0.801250000000     0.159350000000     0.719625000000     0          
O        O      0.859500000000     0.319000000000     0.573900000000     0          
O        O      0.800650000000     0.187000000000     0.559825000000     0          
O        O      0.642050000000     0.185150000000     0.520625000000     0          
O        O      0.670500000000     0.157250000000     0.605975000000     0          
O        O      0.657250000000     0.407550000000     0.535925000000     0          
O        O      0.698750000000     0.159350000000     0.530375000000     0          
O        O      0.640500000000     0.319000000000     0.676100000000     0          
O        O      0.699350000000     0.187000000000     0.690175000000     0          
O        O      0.964100000000     0.000000000000     0.761675000000     0          
O        O      0.892050000000     0.064850000000     0.770625000000     0          
O        O      0.500000000000     0.073850000000     0.750000000000     0          
O        O      0.860400000000     0.000000000000     0.964050000000     0          
O        O      0.920500000000     0.092750000000     0.855975000000     0          
O        O      0.907250000000     0.342450000000     0.785925000000     0          
O        O      0.948750000000     0.090650000000     0.780375000000     0          
O        O      0.890500000000     0.431000000000     0.926100000000     0          
O        O      0.949350000000     0.063000000000     0.940175000000     0          
O        O      0.917200000000     0.000000000000     0.882375000000     0          
O        O      0.535900000000     0.000000000000     0.988325000000     0          
O        O      0.607950000000     0.064850000000     0.979375000000     0          
O        O      0.639600000000     0.000000000000     0.785950000000     0          
O        O      0.579500000000     0.092750000000     0.894025000000     0          
O        O      0.592750000000     0.342450000000     0.964075000000     0          
O        O      0.551250000000     0.090650000000     0.969625000000     0          
O        O      0.609500000000     0.431000000000     0.823900000000     0          
O        O      0.550650000000     0.063000000000     0.809825000000     0          
O        O      0.582800000000     0.000000000000     0.867625000000     0          
O        O      0.607950000000     0.435150000000     0.979375000000     0          
O        O      0.500000000000     0.426150000000     0.750000000000     0          
O        O      0.579500000000     0.407250000000     0.894025000000     0          
O        O      0.592750000000     0.157550000000     0.964075000000     0          
O        O      0.551250000000     0.409350000000     0.969625000000     0          
O        O      0.609500000000     0.069000000000     0.823900000000     0          
O        O      0.550650000000     0.437000000000     0.809825000000     0          
O        O      0.892050000000     0.435150000000     0.770625000000     0          
O        O      0.920500000000     0.407250000000     0.855975000000     0          
O        O      0.907250000000     0.157550000000     0.785925000000     0          
O        O      0.948750000000     0.409350000000     0.780375000000     0          
O        O      0.890500000000     0.069000000000     0.926100000000     0          
O        O      0.949350000000     0.437000000000     0.940175000000     0          
O        O      0.714100000000     0.250000000000     0.761675000000     0          
O        O      0.642050000000     0.314850000000     0.770625000000     0          
O        O      0.750000000000     0.323850000000     0.750000000000     0          
O        O      0.610400000000     0.250000000000     0.964050000000     0          
O        O      0.670500000000     0.342750000000     0.855975000000     0          
O        O      0.657250000000     0.092450000000     0.785925000000     0          
O        O      0.698750000000     0.340650000000     0.780375000000     0          
O        O      0.640500000000     0.181000000000     0.926100000000     0          
O        O      0.699350000000     0.313000000000     0.940175000000     0          
O        O      0.667200000000     0.250000000000     0.882375000000     0          
O        O      0.785900000000     0.250000000000     0.988325000000     0          
O        O      0.857950000000     0.314850000000     0.979375000000     0          
O        O      0.889600000000     0.250000000000     0.785950000000     0          
O        O      0.829500000000     0.342750000000     0.894025000000     0          
O        O      0.842750000000     0.092450000000     0.964075000000     0          
O        O      0.801250000000     0.340650000000     0.969625000000     0          
O        O      0.859500000000     0.181000000000     0.823900000000     0          
O        O      0.800650000000     0.313000000000     0.809825000000     0          
O        O      0.832800000000     0.250000000000     0.867625000000     0          
O        O      0.857950000000     0.185150000000     0.979375000000     0          
O        O      0.750000000000     0.176150000000     0.750000000000     0          
O        O      0.829500000000     0.157250000000     0.894025000000     0          
O        O      0.842750000000     0.407550000000     0.964075000000     0          
O        O      0.801250000000     0.159350000000     0.969625000000     0          
O        O      0.859500000000     0.319000000000     0.823900000000     0          
O        O      0.800650000000     0.187000000000     0.809825000000     0          
O        O      0.642050000000     0.185150000000     0.770625000000     0          
O        O      0.670500000000     0.157250000000     0.855975000000     0          
O        O      0.657250000000     0.407550000000     0.785925000000     0          
O        O      0.698750000000     0.159350000000     0.780375000000     0          
O        O      0.640500000000     0.319000000000     0.926100000000     0          
O        O      0.699350000000     0.187000000000     0.940175000000     0          
O        O      0.964100000000     0.500000000000     0.011675000000     0          
O        O      0.892050000000     0.564850000000     0.020625000000     0          
O        O      0.500000000000     0.573850000000     0.000000000000     0          
O        O      0.860400000000     0.500000000000     0.214050000000     0          
O        O      0.920500000000     0.592750000000     0.105975000000     0          
O        O      0.907250000000     0.842450000000     0.035925000000     0          
O        O      0.948750000000     0.590650000000     0.030375000000     0          
O        O      0.890500000000     0.931000000000     0.176100000000     0          
O        O      0.949350000000     0.563000000000     0.190175000000     0          
O        O      0.917200000000     0.500000000000     0.132375000000     0          
O        O      0.535900000000     0.500000000000     0.238325000000     0          
O        O      0.607950000000     0.564850000000     0.229375000000     0          
O        O      0.639600000000     0.500000000000     0.035950000000     0          
O        O      0.579500000000     0.592750000000     0.144025000000     0          
O        O      0.592750000000     0.842450000000     0.214075000000     0          
O        O      0.551250000000     0.590650000000     0.219625000000     0          
O        O      0.609500000000     0.931000000000     0.073900000000     0          
O        O      0.550650000000     0.563000000000     0.059825000000     0          
O        O      0.582800000000     0.500000000000     0.117625000000     0          
O        O      0.607950000000     0.935150000000     0.229375000000     0          
O        O      0.500000000000     0.926150000000     0.000000000000     0          
O        O      0.579500000000     0.907250000000     0.144025000000     0          
O        O      0.592750000000     0.657550000000     0.214075000000     0          
O        O      0.551250000000     0.909350000000     0.219625000000     0          
O        O      0.609500000000     0.569000000000     0.073900000000     0          
O        O      0.550650000000     0.937000000000     0.059825000000     0          
O        O      0.892050000000     0.935150000000     0.020625000000     0          
O        O      0.920500000000     0.907250000000     0.105975000000     0          
O        O      0.907250000000     0.657550000000     0.035925000000     0          
O        O      0.948750000000     0.909350000000     0.030375000000     0          
O        O      0.890500000000     0.569000000000     0.176100000000     0          
O        O      0.949350000000     0.937000000000     0.190175000000     0          
O        O      0.714100000000     0.750000000000     0.011675000000     0          
O        O      0.642050000000     0.814850000000     0.020625000000     0          
O        O      0.750000000000     0.823850000000     0.000000000000     0          
O        O      0.610400000000     0.750000000000     0.214050000000     0          
O        O      0.670500000000     0.842750000000     0.105975000000     0          
O        O      0.657250000000     0.592450000000     0.035925000000     0          
O        O      0.698750000000     0.840650000000     0.030375000000     0          
O        O      0.640500000000     0.681000000000     0.176100000000     0          
O        O      0.699350000000     0.813000000000     0.190175000000     0          
O        O      0.667200000000     0.750000000000     0.132375000000     0          
O        O      0.785900000000     0.750000000000     0.238325000000     0          
O        O      0.857950000000     0.814850000000     0.229375000000     0          
O        O      0.889600000000     0.750000000000     0.035950000000     0          
O        O      0.829500000000     0.842750000000     0.144025000000     0          
O        O      0.842750000000     0.592450000000     0.214075000000     0          
O        O      0.801250000000     0.840650000000     0.219625000000     0          
O        O      0.859500000000     0.681000000000     0.073900000000     0          
O        O      0.800650000000     0.813000000000     0.059825000000     0          
O        O      0.832800000000     0.750000000000     0.117625000000     0          
O        O      0.857950000000     0.685150000000     0.229375000000     0          
O        O      0.750000000000     0.676150000000     0.000000000000     0          
O        O      0.829500000000     0.657250000000     0.144025000000     0          
O        O      0.842750000000     0.907550000000     0.214075000000     0          
O        O      0.801250000000     0.659350000000     0.219625000000     0          
O        O      0.859500000000     0.819000000000     0.073900000000     0          
O        O      0.800650000000     0.687000000000     0.059825000000     0          
O        O      0.642050000000     0.685150000000     0.020625000000     0          
O        O      0.670500000000     0.657250000000     0.105975000000     0          
O        O      0.657250000000     0.907550000000     0.035925000000     0          
O        O      0.698750000000     0.659350000000     0.030375000000     0          
O        O      0.640500000000     0.819000000000     0.176100000000     0          
O        O      0.699350000000     0.687000000000     0.190175000000     0          
O        O      0.964100000000     0.500000000000     0.261675000000     0          
O        O      0.892050000000     0.564850000000     0.270625000000     0          
O        O      0.500000000000     0.573850000000     0.250000000000     0          
O        O      0.860400000000     0.500000000000     0.464050000000     0          
O        O      0.920500000000     0.592750000000     0.355975000000     0          
O        O      0.907250000000     0.842450000000     0.285925000000     0          
O        O      0.948750000000     0.590650000000     0.280375000000     0          
O        O      0.890500000000     0.931000000000     0.426100000000     0          
O        O      0.949350000000     0.563000000000     0.440175000000     0          
O        O      0.917200000000     0.500000000000     0.382375000000     0          
O        O      0.535900000000     0.500000000000     0.488325000000     0          
O        O      0.607950000000     0.564850000000     0.479375000000     0          
O        O      0.639600000000     0.500000000000     0.285950000000     0          
O        O      0.579500000000     0.592750000000     0.394025000000     0          
O        O      0.592750000000     0.842450000000     0.464075000000     0          
O        O      0.551250000000     0.590650000000     0.469625000000     0          
O        O      0.609500000000     0.931000000000     0.323900000000     0          
O        O      0.550650000000     0.563000000000     0.309825000000     0          
O        O      0.582800000000     0.500000000000     0.367625000000     0          
O        O      0.607950000000     0.935150000000     0.479375000000     0          
O        O      0.500000000000     0.926150000000     0.250000000000     0          
O        O      0.579500000000     0.907250000000     0.394025000000     0          
O        O      0.592750000000     0.657550000000     0.464075000000     0          
O        O      0.551250000000     0.909350000000     0.469625000000     0          
O        O      0.609500000000     0.569000000000     0.323900000000     0          
O        O      0.550650000000     0.937000000000     0.309825000000     0          
O        O      0.892050000000     0.935150000000     0.270625000000     0          
O        O      0.920500000000     0.907250000000     0.355975000000     0          
O        O      0.907250000000     0.657550000000     0.285925000000     0          
O        O      0.948750000000     0.909350000000     0.280375000000     0          
O        O      0.890500000000     0.569000000000     0.426100000000     0          
O        O      0.949350000000     0.937000000000     0.440175000000     0          
O        O      0.714100000000     0.750000000000     0.261675000000     0          
O        O      0.642050000000     0.814850000000     0.270625000000     0          
O        O      0.750000000000     0.823850000000     0.250000000000     0          
O        O      0.610400000000     0.750000000000     0.464050000000     0          
O        O      0.670500000000     0.842750000000     0.355975000000     0          
O        O      0.657250000000     0.592450000000     0.285925000000     0          
O        O      0.698750000000     0.840650000000     0.280375000000     0          
O        O      0.640500000000     0.681000000000     0.426100000000     0          
O        O      0.699350000000     0.813000000000     0.440175000000     0          
O        O      0.667200000000     0.750000000000     0.382375000000     0          
O        O      0.785900000000     0.750000000000     0.488325000000     0          
O        O      0.857950000000     0.814850000000     0.479375000000     0          
O        O      0.889600000000     0.750000000000     0.285950000000     0          
O        O      0.829500000000     0.842750000000     0.394025000000     0          
O        O      0.842750000000     0.592450000000     0.464075000000     0          
O        O      0.801250000000     0.840650000000     0.469625000000     0          
O        O      0.859500000000     0.681000000000     0.323900000000     0          
O        O      0.800650000000     0.813000000000     0.309825000000     0          
O        O      0.832800000000     0.750000000000     0.367625000000     0          
O        O      0.857950000000     0.685150000000     0.479375000000     0          
O        O      0.750000000000     0.676150000000     0.250000000000     0          
O        O      0.829500000000     0.657250000000     0.394025000000     0          
O        O      0.842750000000     0.907550000000     0.464075000000     0          
O        O      0.801250000000     0.659350000000     0.469625000000     0          
O        O      0.859500000000     0.819000000000     0.323900000000     0          
O        O      0.800650000000     0.687000000000     0.309825000000     0          
O        O      0.642050000000     0.685150000000     0.270625000000     0          
O        O      0.670500000000     0.657250000000     0.355975000000     0          
O        O      0.657250000000     0.907550000000     0.285925000000     0          
O        O      0.698750000000     0.659350000000     0.280375000000     0          
O        O      0.640500000000     0.819000000000     0.426100000000     0          
O        O      0.699350000000     0.687000000000     0.440175000000     0          
O        O      0.964100000000     0.500000000000     0.511675000000     0          
O        O      0.892050000000     0.564850000000     0.520625000000     0          
O        O      0.500000000000     0.573850000000     0.500000000000     0          
O        O      0.860400000000     0.500000000000     0.714050000000     0          
O        O      0.920500000000     0.592750000000     0.605975000000     0          
O        O      0.907250000000     0.842450000000     0.535925000000     0          
O        O      0.948750000000     0.590650000000     0.530375000000     0          
O        O      0.890500000000     0.931000000000     0.676100000000     0          
O        O      0.949350000000     0.563000000000     0.690175000000     0          
O        O      0.917200000000     0.500000000000     0.632375000000     0          
O        O      0.535900000000     0.500000000000     0.738325000000     0          
O        O      0.607950000000     0.564850000000     0.729375000000     0          
O        O      0.639600000000     0.500000000000     0.535950000000     0          
O        O      0.579500000000     0.592750000000     0.644025000000     0          
O        O      0.592750000000     0.842450000000     0.714075000000     0          
O        O      0.551250000000     0.590650000000     0.719625000000     0          
O        O      0.609500000000     0.931000000000     0.573900000000     0          
O        O      0.550650000000     0.563000000000     0.559825000000     0          
O        O      0.582800000000     0.500000000000     0.617625000000     0          
O        O      0.607950000000     0.935150000000     0.729375000000     0          
O        O      0.500000000000     0.926150000000     0.500000000000     0          
O        O      0.579500000000     0.907250000000     0.644025000000     0          
O        O      0.592750000000     0.657550000000     0.714075000000     0          
O        O      0.551250000000     0.909350000000     0.719625000000     0          
O        O      0.609500000000     0.569000000000     0.573900000000     0          
O        O      0.550650000000     0.937000000000     0.559825000000     0          
O        O      0.892050000000     0.935150000000     0.520625000000     0          
O        O      0.920500000000     0.907250000000     0.605975000000     0          
O        O      0.907250000000     0.657550000000     0.535925000000     0          
O        O      0.948750000000     0.909350000000     0.530375000000     0          
O        O      0.890500000000     0.569000000000     0.676100000000     0          
O        O      0.949350000000     0.937000000000     0.690175000000     0          
O        O      0.714100000000     0.750000000000     0.511675000000     0          
O        O      0.642050000000     0.814850000000     0.520625000000     0          
O        O      0.750000000000     0.823850000000     0.500000000000     0          
O        O      0.610400000000     0.750000000000     0.714050000000     0          
O        O      0.670500000000     0.842750000000     0.605975000000     0          
O        O      0.657250000000     0.592450000000     0.535925000000     0          
O        O      0.698750000000     0.840650000000     0.530375000000     0          
O        O      0.640500000000     0.681000000000     0.676100000000     0          
O        O      0.699350000000     0.813000000000     0.690175000000     0          
O        O      0.667200000000     0.750000000000     0.632375000000     0          
O        O      0.785900000000     0.750000000000     0.738325000000     0          
O        O      0.857950000000     0.814850000000     0.729375000000     0          
O        O      0.889600000000     0.750000000000     0.535950000000     0          
O        O      0.829500000000     0.842750000000     0.644025000000     0          
O        O      0.842750000000     0.592450000000     0.714075000000     0          
O        O      0.801250000000     0.840650000000     0.719625000000     0          
O        O      0.859500000000     0.681000000000     0.573900000000     0          
O        O      0.800650000000     0.813000000000     0.559825000000     0          
O        O      0.832800000000     0.750000000000     0.617625000000     0          
O        O      0.857950000000     0.685150000000     0.729375000000     0          
O        O      0.750000000000     0.676150000000     0.500000000000     0          
O        O      0.829500000000     0.657250000000     0.644025000000     0          
O        O      0.842750000000     0.907550000000     0.714075000000     0          
O        O      0.801250000000     0.659350000000     0.719625000000     0          
O        O      0.859500000000     0.819000000000     0.573900000000     0          
O        O      0.800650000000     0.687000000000     0.559825000000     0          
O        O      0.642050000000     0.685150000000     0.520625000000     0          
O        O      0.670500000000     0.657250000000     0.605975000000     0          
O        O      0.657250000000     0.907550000000     0.535925000000     0          
O        O      0.698750000000     0.659350000000     0.530375000000     0          
O        O      0.640500000000     0.819000000000     0.676100000000     0          
O        O      0.699350000000     0.687000000000     0.690175000000     0          
O        O      0.964100000000     0.500000000000     0.761675000000     0          
O        O      0.892050000000     0.564850000000     0.770625000000     0          
O        O      0.500000000000     0.573850000000     0.750000000000     0          
O        O      0.860400000000     0.500000000000     0.964050000000     0          
O        O      0.920500000000     0.592750000000     0.855975000000     0          
O        O      0.907250000000     0.842450000000     0.785925000000     0          
O        O      0.948750000000     0.590650000000     0.780375000000     0          
O        O      0.890500000000     0.931000000000     0.926100000000     0          
O        O      0.949350000000     0.563000000000     0.940175000000     0          
O        O      0.917200000000     0.500000000000     0.882375000000     0          
O        O      0.535900000000     0.500000000000     0.988325000000     0          
O        O      0.607950000000     0.564850000000     0.979375000000     0          
O        O      0.639600000000     0.500000000000     0.785950000000     0          
O        O      0.579500000000     0.592750000000     0.894025000000     0          
O        O      0.592750000000     0.842450000000     0.964075000000     0          
O        O      0.551250000000     0.590650000000     0.969625000000     0          
O        O      0.609500000000     0.931000000000     0.823900000000     0          
O        O      0.550650000000     0.563000000000     0.809825000000     0          
O        O      0.582800000000     0.500000000000     0.867625000000     0          
O        O      0.607950000000     0.935150000000     0.979375000000     0          
O        O      0.500000000000     0.926150000000     0.750000000000     0          
O        O      0.579500000000     0.907250000000     0.894025000000     0          
O        O      0.592750000000     0.657550000000     0.964075000000     0          
O        O      0.551250000000     0.909350000000     0.969625000000     0          
O        O      0.609500000000     0.569000000000     0.823900000000     0          
O        O      0.550650000000     0.937000000000     0.809825000000     0          
O        O      0.892050000000     0.935150000000     0.770625000000     0          
O        O      0.920500000000     0.907250000000     0.855975000000     0          
O        O      0.907250000000     0.657550000000     0.785925000000     0          
O        O      0.948750000000     0.909350000000     0.780375000000     0          
O        O      0.890500000000     0.569000000000     0.926100000000     0          
O        O      0.949350000000     0.937000000000     0.940175000000     0          
O        O      0.714100000000     0.750000000000     0.761675000000     0          
O        O      0.642050000000     0.814850000000     0.770625000000     0          
O        O      0.750000000000     0.823850000000     0.750000000000     0          
O        O      0.610400000000     0.750000000000     0.964050000000     0          
O        O      0.670500000000     0.842750000000     0.855975000000     0          
O        O      0.657250000000     0.592450000000     0.785925000000     0          
O        O      0.698750000000     0.840650000000     0.780375000000     0          
O        O      0.640500000000     0.681000000000     0.926100000000     0          
O        O      0.699350000000     0.813000000000     0.940175000000     0          
O        O      0.667200000000     0.750000000000     0.882375000000     0          
O        O      0.785900000000     0.750000000000     0.988325000000     0          
O        O      0.857950000000     0.814850000000     0.979375000000     0          
O        O      0.889600000000     0.750000000000     0.785950000000     0          
O        O      0.829500000000     0.842750000000     0.894025000000     0          
O        O      0.842750000000     0.592450000000     0.964075000000     0          
O        O      0.801250000000     0.840650000000     0.969625000000     0          
O        O      0.859500000000     0.681000000000     0.823900000000     0          
O        O      0.800650000000     0.813000000000     0.809825000000     0          
O        O      0.832800000000     0.750000000000     0.867625000000     0          
O        O      0.857950000000     0.685150000000     0.979375000000     0          
O        O      0.750000000000     0.676150000000     0.750000000000     0          
O        O      0.829500000000     0.657250000000     0.894025000000     0          
O        O      0.842750000000     0.907550000000     0.964075000000     0          
O        O      0.801250000000     0.659350000000     0.969625000000     0          
O        O      0.859500000000     0.819000000000     0.823900000000     0          
O        O      0.800650000000     0.687000000000     0.809825000000     0          
O        O      0.642050000000     0.685150000000     0.770625000000     0          
O        O      0.670500000000     0.657250000000     0.855975000000     0          
O        O      0.657250000000     0.907550000000     0.785925000000     0          
O        O      0.698750000000     0.659350000000     0.780375000000     0          
O        O      0.640500000000     0.819000000000     0.926100000000     0          
O        O      0.699350000000     0.687000000000     0.940175000000     0          


